<additional>
  <flow type="car" id="centrale_student_carflow_d128_0" begin="1800.0" end="2400.00003" from="134889167#1" to="698053484#1" number="0"/>
  <flow type="car" id="centrale_student_carflow_d128_south_0" begin="1800.0" end="2400.00003" from="-55429077#0" to="698053484#1" number="0"/>
  <flow type="car" id="centrale_student_carflow_d446_0" begin="1800.0" end="2400.00003" from="44848109#1" to="698053484#1" number="0"/>
  <flow type="car" id="centrale_student_carflow_nicolas_0" begin="1800.0" end="2400.00003" from="446506377#2" to="698053484#1" number="0"/>
  <flow type="car" id="centrale_student_carflow_n118_0" begin="1800.0" end="2400.00003" from="22737005#1" to="698053484#1" number="0"/>
  <flow type="car" id="centrale_student_carflow_d128_1" begin="2400.00003" end="3000.0000600000008" from="134889167#1" to="698053484#1" number="1"/>
  <flow type="car" id="centrale_student_carflow_d128_south_1" begin="2400.00003" end="3000.0000600000008" from="-55429077#0" to="698053484#1" number="5"/>
  <flow type="car" id="centrale_student_carflow_d446_1" begin="2400.00003" end="3000.0000600000008" from="44848109#1" to="698053484#1" number="2"/>
  <flow type="car" id="centrale_student_carflow_nicolas_1" begin="2400.00003" end="3000.0000600000008" from="446506377#2" to="698053484#1" number="0"/>
  <flow type="car" id="centrale_student_carflow_n118_1" begin="2400.00003" end="3000.0000600000008" from="22737005#1" to="698053484#1" number="5"/>
  <flow type="car" id="centrale_student_carflow_d128_2" begin="3000.0000600000008" end="3600.0000900000014" from="134889167#1" to="698053484#1" number="1"/>
  <flow type="car" id="centrale_student_carflow_d128_south_2" begin="3000.0000600000008" end="3600.0000900000014" from="-55429077#0" to="698053484#1" number="5"/>
  <flow type="car" id="centrale_student_carflow_d446_2" begin="3000.0000600000008" end="3600.0000900000014" from="44848109#1" to="698053484#1" number="2"/>
  <flow type="car" id="centrale_student_carflow_nicolas_2" begin="3000.0000600000008" end="3600.0000900000014" from="446506377#2" to="698053484#1" number="0"/>
  <flow type="car" id="centrale_student_carflow_n118_2" begin="3000.0000600000008" end="3600.0000900000014" from="22737005#1" to="698053484#1" number="5"/>
  <flow type="car" id="centrale_student_carflow_d128_3" begin="3600.0000900000014" end="4200.0001200000015" from="134889167#1" to="698053484#1" number="0"/>
  <flow type="car" id="centrale_student_carflow_d128_south_3" begin="3600.0000900000014" end="4200.0001200000015" from="-55429077#0" to="698053484#1" number="0"/>
  <flow type="car" id="centrale_student_carflow_d446_3" begin="3600.0000900000014" end="4200.0001200000015" from="44848109#1" to="698053484#1" number="0"/>
  <flow type="car" id="centrale_student_carflow_nicolas_3" begin="3600.0000900000014" end="4200.0001200000015" from="446506377#2" to="698053484#1" number="0"/>
  <flow type="car" id="centrale_student_carflow_n118_3" begin="3600.0000900000014" end="4200.0001200000015" from="22737005#1" to="698053484#1" number="0"/>
</additional>
