<additional>
  <flow type="car" id="centrale_personnel_carflow_d128_0" begin="0.0" end="600.0" from="134889167#1" to="698053484#1" number="1"/>
  <flow type="car" id="centrale_personnel_carflow_d128_south_0" begin="0.0" end="600.0" from="-55429077#0" to="698053484#1" number="3"/>
  <flow type="car" id="centrale_personnel_carflow_d446_0" begin="0.0" end="600.0" from="44848109#1" to="698053484#1" number="1"/>
  <flow type="car" id="centrale_personnel_carflow_nicolas_0" begin="0.0" end="600.0" from="446506377#2" to="698053484#1" number="0"/>
  <flow type="car" id="centrale_personnel_carflow_n118_0" begin="0.0" end="600.0" from="22737005#1" to="698053484#1" number="3"/>
  <flow type="car" id="centrale_personnel_carflow_d128_1" begin="600.0" end="1200.0" from="134889167#1" to="698053484#1" number="6"/>
  <flow type="car" id="centrale_personnel_carflow_d128_south_1" begin="600.0" end="1200.0" from="-55429077#0" to="698053484#1" number="19"/>
  <flow type="car" id="centrale_personnel_carflow_d446_1" begin="600.0" end="1200.0" from="44848109#1" to="698053484#1" number="10"/>
  <flow type="car" id="centrale_personnel_carflow_nicolas_1" begin="600.0" end="1200.0" from="446506377#2" to="698053484#1" number="2"/>
  <flow type="car" id="centrale_personnel_carflow_n118_1" begin="600.0" end="1200.0" from="22737005#1" to="698053484#1" number="19"/>
  <flow type="car" id="centrale_personnel_carflow_d128_2" begin="1200.0" end="1800.0" from="134889167#1" to="698053484#1" number="15"/>
  <flow type="car" id="centrale_personnel_carflow_d128_south_2" begin="1200.0" end="1800.0" from="-55429077#0" to="698053484#1" number="48"/>
  <flow type="car" id="centrale_personnel_carflow_d446_2" begin="1200.0" end="1800.0" from="44848109#1" to="698053484#1" number="26"/>
  <flow type="car" id="centrale_personnel_carflow_nicolas_2" begin="1200.0" end="1800.0" from="446506377#2" to="698053484#1" number="5"/>
  <flow type="car" id="centrale_personnel_carflow_n118_2" begin="1200.0" end="1800.0" from="22737005#1" to="698053484#1" number="48"/>
  <flow type="car" id="centrale_personnel_carflow_d128_3" begin="1800.0" end="2400.0" from="134889167#1" to="698053484#1" number="15"/>
  <flow type="car" id="centrale_personnel_carflow_d128_south_3" begin="1800.0" end="2400.0" from="-55429077#0" to="698053484#1" number="48"/>
  <flow type="car" id="centrale_personnel_carflow_d446_3" begin="1800.0" end="2400.0" from="44848109#1" to="698053484#1" number="26"/>
  <flow type="car" id="centrale_personnel_carflow_nicolas_3" begin="1800.0" end="2400.0" from="446506377#2" to="698053484#1" number="5"/>
  <flow type="car" id="centrale_personnel_carflow_n118_3" begin="1800.0" end="2400.0" from="22737005#1" to="698053484#1" number="48"/>
  <flow type="car" id="centrale_personnel_carflow_d128_4" begin="2400.0" end="3000.0" from="134889167#1" to="698053484#1" number="6"/>
  <flow type="car" id="centrale_personnel_carflow_d128_south_4" begin="2400.0" end="3000.0" from="-55429077#0" to="698053484#1" number="19"/>
  <flow type="car" id="centrale_personnel_carflow_d446_4" begin="2400.0" end="3000.0" from="44848109#1" to="698053484#1" number="10"/>
  <flow type="car" id="centrale_personnel_carflow_nicolas_4" begin="2400.0" end="3000.0" from="446506377#2" to="698053484#1" number="2"/>
  <flow type="car" id="centrale_personnel_carflow_n118_4" begin="2400.0" end="3000.0" from="22737005#1" to="698053484#1" number="19"/>
  <flow type="car" id="centrale_personnel_carflow_d128_5" begin="3000.0" end="3600.0" from="134889167#1" to="698053484#1" number="0"/>
  <flow type="car" id="centrale_personnel_carflow_d128_south_5" begin="3000.0" end="3600.0" from="-55429077#0" to="698053484#1" number="3"/>
  <flow type="car" id="centrale_personnel_carflow_d446_5" begin="3000.0" end="3600.0" from="44848109#1" to="698053484#1" number="1"/>
  <flow type="car" id="centrale_personnel_carflow_nicolas_5" begin="3000.0" end="3600.0" from="446506377#2" to="698053484#1" number="0"/>
  <flow type="car" id="centrale_personnel_carflow_n118_5" begin="3000.0" end="3600.0" from="22737005#1" to="698053484#1" number="3"/>
</additional>
