<?xml version="1.0" encoding="UTF-8"?>

<!-- generated on 01/28/21 10:16:53 by Eclipse SUMO polyconvert Version 1.8.0
<configuration xmlns:xsi="http://www.w3.org/2001/XMLSchema-instance" xsi:noNamespaceSchemaLocation="http://sumo.dlr.de/xsd/polyconvertConfiguration.xsd">

    <input>
        <net-file value="osm.net.xml"/>
        <osm-files value="osm_bbox.osm.xml"/>
        <osm.keep-full-type value="true"/>
        <type-file value="C:\Program%20Files%20(x86)\Eclipse\Sumo\data\typemap\osmPolyconvert.typ.xml"/>
    </input>

    <output>
        <output-file value="osm.poly.xml"/>
    </output>

    <processing>
        <poi-layer-offset value="5"/>
    </processing>

    <report>
        <verbose value="true"/>
    </report>

</configuration>
-->

<additional xmlns:xsi="http://www.w3.org/2001/XMLSchema-instance" xsi:noNamespaceSchemaLocation="http://sumo.dlr.de/xsd/additional_file.xsd">
    <location netOffset="-436580.59,-5394504.72" convBoundary="-4364.67,-1818.00,6888.38,10358.36" origBoundary="2.077910,48.684351,2.231397,48.793622" projParameter="+proj=utm +zone=31 +ellps=WGS84 +datum=WGS84 +units=m +no_defs"/>

    <poly id="112136903" type="amenity.parking" color="184,184,179" fill="1" layer="-1.00" shape="4818.838222,474.249798 4826.126729,475.340961 4822.648095,502.980877 4815.521365,501.876912 4818.838222,474.249798"/>
    <poly id="116394890" type="building.yes" color="255,230,230" fill="1" layer="-1.00" shape="1189.055096,3254.481455 1205.241765,3253.757033 1205.130106,3250.323053 1199.741859,3250.560735 1199.241315,3240.583031 1194.646266,3240.722976 1194.972054,3247.545330 1188.701490,3247.803934 1189.055096,3254.481455"/>
    <poly id="116396740" type="building.yes" color="255,230,230" fill="1" layer="-1.00" shape="1156.905263,2584.025954 1160.963353,2583.836366 1162.705757,2583.761432 1164.049927,2582.267918 1168.946064,2582.035678 1174.781403,2575.634084 1176.386641,2577.117086 1178.569900,2579.649805 1179.504640,2581.029079 1180.344389,2582.464993 1181.753741,2585.517697 1182.694131,2588.731247 1182.991864,2590.373288 1183.194359,2592.049738 1183.256995,2593.716623 1183.224146,2595.395686 1183.058669,2597.053986 1182.790105,2598.702314 1182.389038,2600.340995 1181.884514,2601.936356 1181.283888,2603.488315 1180.543158,2605.008477 1178.802193,2607.862691 1176.653524,2610.432385 1175.482410,2611.612693 1174.207346,2612.705218 1172.864982,2613.698435 1169.985706,2615.386867 1168.441563,2616.093278 1166.866645,2616.677743 1165.290493,2617.151049 1162.707149,2617.668892 1162.267575,2607.890632 1157.474300,2608.110619 1157.913759,2617.877762 1156.971522,2617.810406 1155.299340,2617.584397 1153.655465,2617.258021 1152.047004,2616.808962 1148.929340,2615.576226 1147.449802,2614.814455 1146.042450,2613.929593 1144.670882,2612.955396 1143.357162,2611.891620 1142.152771,2610.737691 1141.013829,2609.516333 1139.976738,2608.193788 1138.165341,2605.367905 1137.427930,2603.875274 1136.792865,2602.325920 1136.253037,2600.742157 1135.852451,2599.112378 1135.547226,2597.459305 1135.344963,2595.805088 1135.282313,2594.138203 1135.315272,2592.470256 1135.480488,2590.789722 1135.749038,2589.141392 1136.654605,2585.907343 1137.262575,2584.355297 1138.803597,2581.381002 1139.744374,2579.992018 1140.744604,2578.657960 1142.256196,2577.006940 1148.795343,2582.982068 1153.691603,2582.760931 1155.162982,2584.112006 1156.905263,2584.025954"/>
    <poly id="116396742" type="building.yes" color="255,230,230" fill="1" layer="-1.00" shape="1156.905263,2584.025954 1155.903819,2562.069479 1159.925029,2561.869182 1160.963353,2583.836366 1156.905263,2584.025954"/>
    <poly id="116396743" type="building.yes" color="255,230,230" fill="1" layer="-1.00" shape="1146.419758,2483.665113 1152.955451,2483.359065 1157.881092,2483.126490 1155.909148,2440.013641 1141.727595,2440.682535 1143.699524,2483.784264 1146.419758,2483.665113"/>
    <poly id="118514664" type="amenity.place_of_worship" color="237,199,199" fill="1" layer="-1.00" shape="4801.851704,3141.875380 4790.964348,3143.734621 4789.202472,3144.042093 4791.353219,3156.303969 4798.094178,3155.299635 4799.277684,3160.167656 4820.053746,3156.604188 4817.430095,3139.200039 4801.851704,3141.875380"/>
    <poly id="118514664#1" type="building.church" color="255,230,230" fill="1" layer="-1.00" shape="4801.851704,3141.875380 4790.964348,3143.734621 4789.202472,3144.042093 4791.353219,3156.303969 4798.094178,3155.299635 4799.277684,3160.167656 4820.053746,3156.604188 4817.430095,3139.200039 4801.851704,3141.875380"/>
    <poly id="118845193" type="building.yes" color="255,230,230" fill="1" layer="-1.00" shape="2199.318910,2388.501991 2180.985279,2382.131956 2185.079451,2370.414222 2203.420470,2376.784189 2199.318910,2388.501991"/>
    <poly id="118845193#1" type="shop.convenience" color="237,199,255" fill="1" layer="-1.00" shape="2199.318910,2388.501991 2180.985279,2382.131956 2185.079451,2370.414222 2203.420470,2376.784189 2199.318910,2388.501991"/>
    <poly id="119398507" type="natural.water" color="181,209,209" fill="1" layer="-4.00" shape="3292.290859,2216.365912 3290.435365,2218.253485 3287.975740,2218.680078 3286.788370,2218.392649 3287.752838,2216.414576 3288.733160,2215.914910 3288.716233,2214.336461 3287.727566,2214.058018 3286.043239,2213.386820 3284.563815,2213.302632 3283.775759,2213.211029 3281.795123,2213.032163 3281.202551,2212.649419 3281.886528,2211.952822 3282.460144,2210.568148 3281.056268,2207.926213 3279.283753,2208.634485 3279.070384,2207.258251 3278.656368,2205.005917 3278.650049,2204.416778 3278.839096,2203.525381 3280.488614,2200.950752 3281.552989,2199.371823 3280.544172,2197.214805 3281.320547,2196.217055 3281.499103,2194.347464 3282.756701,2192.266193 3285.437179,2193.226869 3287.417858,2194.094997 3290.394596,2195.930751 3292.473952,2196.397607 3293.971260,2198.149173 3294.386428,2199.823406 3294.503140,2201.789884 3294.614488,2203.256150 3294.744872,2205.811689 3294.866828,2208.267264 3294.990895,2210.233663 3293.843692,2213.692270 3292.967447,2214.980135 3292.290859,2216.365912"/>
    <poly id="119685302" type="amenity.fuel" color="237,199,199" fill="1" layer="-1.00" shape="2196.011616,2407.615152 2171.140190,2398.670658 2172.639397,2394.507580 2197.518193,2403.452000 2196.011616,2407.615152"/>
    <poly id="119685302#1" type="building.roof" color="255,230,230" fill="1" layer="-1.00" shape="2196.011616,2407.615152 2171.140190,2398.670658 2172.639397,2394.507580 2197.518193,2403.452000 2196.011616,2407.615152"/>
    <poly id="119685302#2" type="shop.convenience" color="237,199,255" fill="1" layer="-1.00" shape="2196.011616,2407.615152 2171.140190,2398.670658 2172.639397,2394.507580 2197.518193,2403.452000 2196.011616,2407.615152"/>
    <poly id="126826977" type="leisure.pitch" color="207,245,201" fill="1" layer="-2.00" shape="2175.788528,3395.040840 2193.865184,3394.343084 2192.483557,3358.749851 2174.406908,3359.458725 2175.788528,3395.040840"/>
    <poly id="126826977#1" type="sport.tennis" color="79,230,125" fill="1" layer="-2.00" shape="2175.788528,3395.040840 2193.865184,3394.343084 2192.483557,3358.749851 2174.406908,3359.458725 2175.788528,3395.040840"/>
    <poly id="126826978" type="leisure.pitch" color="207,245,201" fill="1" layer="-2.00" shape="2347.278798,3472.868729 2377.175099,3478.401810 2385.203609,3434.968521 2355.314440,3429.435316 2347.278798,3472.868729"/>
    <poly id="126826978#1" type="sport.multi" color="79,230,125" fill="1" layer="-2.00" shape="2347.278798,3472.868729 2377.175099,3478.401810 2385.203609,3434.968521 2355.314440,3429.435316 2347.278798,3472.868729"/>
    <poly id="126826979" type="leisure.pitch" color="207,245,201" fill="1" layer="-2.00" shape="2219.270900,3360.347231 2236.650619,3359.123601 2234.159727,3323.620292 2216.779777,3324.832813 2219.270900,3360.347231"/>
    <poly id="126826979#1" type="sport.tennis" color="79,230,125" fill="1" layer="-2.00" shape="2219.270900,3360.347231 2236.650619,3359.123601 2234.159727,3323.620292 2216.779777,3324.832813 2219.270900,3360.347231"/>
    <poly id="129535905" type="landuse.grass" color="194,194,130" fill="1" layer="-3.00" shape="2525.338205,1715.432962 2562.134475,1669.920208 2572.663737,1666.715396 2578.765836,1660.256842 2567.540660,1663.736004 2557.160787,1663.759703 2547.752217,1661.771795 2543.274388,1660.630865 2536.981840,1656.319022 2532.138838,1651.357771 2528.743821,1646.280749 2526.328325,1641.982409 2523.351333,1633.398953 2522.024607,1629.778056 2523.359396,1643.626631 2525.495241,1658.756095 2526.518335,1663.547590 2526.820810,1668.369142 2528.184723,1678.126296 2528.025996,1699.417336 2525.338205,1715.432962"/>
    <poly id="129535908" type="landuse.grass" color="194,194,130" fill="1" layer="-3.00" shape="2536.057640,1558.309279 2532.851269,1550.284165 2531.456479,1541.750232 2531.929235,1533.118204 2534.251943,1524.799606 2538.310897,1517.162542 2543.926188,1510.575833 2550.829025,1505.353680 2558.698159,1501.721918 2567.160363,1499.862472 2575.834085,1499.868423 2584.299909,1501.733204 2592.159522,1505.361078 2599.058026,1510.589136 2604.669226,1517.187450 2608.724697,1524.825413 2611.044044,1533.149231 2611.505482,1541.782238 2610.104441,1550.302034 2606.888321,1558.330123 2602.022215,1565.486736 2595.730422,1571.424813 2588.297044,1575.885584 2580.087459,1578.642747 2571.468124,1579.570041 2562.850595,1578.629650 2554.640038,1575.872763 2547.212919,1571.417580 2540.924607,1565.471466 2536.057640,1558.309279"/>
    <poly id="129628613" type="leisure.playground" color="207,245,201" fill="1" layer="-2.00" shape="4151.000015,603.252674 4087.081014,599.692718 4084.611779,592.325990 4082.304950,582.923122 4112.753223,578.854712 4114.893876,583.679119 4127.120411,582.760575 4127.889956,580.384509 4151.354656,581.103751 4151.000015,603.252674"/>
    <poly id="129628614" type="leisure.pitch" color="207,245,201" fill="1" layer="-2.00" shape="4108.742142,648.356494 4110.212910,621.137503 4144.196127,622.957280 4142.725196,650.176261 4108.742142,648.356494"/>
    <poly id="129628614#1" type="sport.soccer;basketball" color="79,230,125" fill="1" layer="-2.00" shape="4108.742142,648.356494 4110.212910,621.137503 4144.196127,622.957280 4142.725196,650.176261 4108.742142,648.356494"/>
    <poly id="133392420" type="building.yes" color="255,230,230" fill="1" layer="-1.00" shape="2187.463651,1300.617998 2216.364994,1299.524356 2216.570339,1304.858344 2222.158615,1304.575025 2222.028050,1299.351393 2247.839801,1298.291625 2248.045116,1303.625613 2254.149539,1303.447869 2253.944230,1298.113881 2279.544115,1297.189975 2283.098544,1314.827481 2252.961195,1315.912025 2252.078939,1315.966115 2251.954005,1315.978595 2251.049802,1316.044041 2221.043903,1317.038386 2219.206073,1317.169610 2197.695101,1317.937989 2192.216212,1318.131201 2190.837496,1313.143538 2189.779265,1309.208504 2187.463651,1300.617998"/>
    <poly id="133501725" type="building.university" color="255,230,230" fill="1" layer="-1.00" shape="2184.271010,1338.384436 2183.229819,1307.034343 2183.022939,1300.888822 2112.994417,1303.221334 2113.423175,1321.582172 2114.250312,1340.716856 2184.271010,1338.384436"/>
    <poly id="134230446" type="building.university" color="255,230,230" fill="1" layer="-1.00" shape="2285.434790,1345.574258 2223.350300,1349.063941 2206.311931,1349.105345 2206.437217,1347.102892 2206.636064,1345.099637 2206.761350,1343.097184 2207.180881,1341.091519 2207.453291,1339.087461 2207.864331,1336.303689 2209.732044,1332.169964 2211.626448,1330.481719 2213.600479,1329.348463 2215.656563,1328.992512 2217.645150,1329.193156 2219.630099,1329.060325 2221.469138,1329.040259 2222.644909,1328.916259 2224.625007,1328.338798 2226.605105,1327.761337 2228.508004,1326.851205 2230.479614,1325.495639 2232.452438,1324.251231 2235.457551,1323.217907 2237.447352,1323.529715 2239.442003,1324.286158 2241.513852,1325.375273 2243.508502,1326.131716 2245.575500,1326.776200 2247.567724,1327.310329 2249.631085,1327.621340 2251.472548,1327.823600 2252.318991,1327.858837 2253.386361,1327.913900 2254.636907,1327.900263 2256.106926,1327.773061 2256.841329,1327.653881 2258.604383,1327.412313 2260.588120,1327.168339 2262.569434,1326.702049 2264.549537,1326.124602 2266.529639,1325.547155 2268.506107,1324.636235 2270.410225,1323.837276 2272.465103,1323.370188 2274.451266,1323.348535 2275.408779,1323.449268 2277.475774,1324.093764 2279.472843,1325.072537 2281.550742,1326.717457 2282.446809,1327.930575 2283.568406,1329.585921 2284.621288,1331.686701 2285.302727,1333.458016 2285.765904,1335.454052 2285.714151,1337.455701 2285.735960,1339.456549 2285.537084,1341.459802 2285.485331,1343.461451 2285.434790,1345.574258"/>
    <poly id="134230465" type="amenity.parking" color="184,184,179" fill="1" layer="-1.00" shape="2132.729932,1220.082878 2140.233708,1211.952081 2140.592816,1208.457375 2144.092235,1208.219037 2144.475576,1198.187186 2131.844763,1198.325184 2131.903226,1190.209031 2147.722599,1188.313045 2163.209879,1188.343997 2164.862968,1199.587608 2167.425955,1199.159402 2168.684004,1205.893768 2184.487370,1203.208744 2184.976880,1206.938759 2203.045953,1203.550907 2202.456940,1199.466227 2231.490977,1194.302353 2239.195748,1207.280947 2247.630927,1241.363031 2138.721961,1243.952618 2136.240416,1238.365573 2132.729932,1220.082878"/>
    <poly id="134230468" type="amenity.parking" color="184,184,179" fill="1" layer="-1.00" shape="2241.115247,1381.910284 2243.306514,1379.785243 2245.059529,1377.275883 2246.287111,1374.483208 2246.959713,1371.396424 2247.015253,1368.394190 2246.459266,1365.309689 2245.399707,1362.597546 2243.789894,1360.024810 2241.713168,1357.812916 2239.029278,1355.918926 2236.397283,1354.735868 2233.874335,1354.107479 2230.487973,1353.910961 2227.271085,1354.412977 2224.632099,1355.286672 2222.030543,1356.893691 2218.653207,1360.221217 2216.926875,1363.152745 2215.882116,1365.843377 2215.559954,1368.681764 2215.665780,1371.637769 2216.345382,1374.587513 2217.522165,1377.253903 2219.442518,1379.967766 2221.494387,1381.924229 2241.115247,1381.910284"/>
    <poly id="134230469" type="building.yes" color="255,230,230" fill="1" layer="-1.00" shape="2251.049802,1316.044041 2251.954005,1315.978595 2252.078939,1315.966115 2252.961195,1315.912025 2253.386361,1327.913900 2252.318991,1327.858837 2251.472548,1327.823600 2251.049802,1316.044041"/>
    <poly id="134230470" type="building.yes" color="255,230,230" fill="1" layer="-1.00" shape="2219.206073,1317.169610 2221.043903,1317.038386 2221.469138,1329.040259 2219.630099,1329.060325 2219.206073,1317.169610"/>
    <poly id="134230472" type="amenity.parking" color="184,184,179" fill="1" layer="-1.00" shape="2280.106403,1377.794225 2282.541543,1373.743275 2283.464152,1370.642654 2283.725197,1367.593712 2283.390277,1364.540149 2282.453246,1361.593204 2280.944739,1358.863714 2279.036612,1356.594383 2276.705949,1354.707641 2274.197077,1353.345349 2271.229372,1352.410512 2268.010747,1352.078738 2265.122336,1352.343690 2262.313183,1353.130286 2259.481636,1354.561921 2257.212914,1356.332051 2255.141997,1358.700351 2253.561193,1361.485758 2252.607356,1364.419969 2252.244676,1367.592309 2252.513650,1370.668824 2253.346862,1373.539077 2254.834765,1376.402190 2256.461061,1378.463361 2258.845396,1380.549617 2268.939569,1379.238902 2280.106403,1377.794225"/>
    <poly id="134273802" type="amenity.university" color="237,199,199" fill="1" layer="-1.00" shape="1594.671235,1024.667091 1537.215885,1023.910997 1343.814811,1025.647708 1335.018753,739.433517 1299.628070,730.842628 1299.531135,706.141358 1299.204013,619.453326 1553.078008,694.290142 1560.161475,781.503943 1572.438672,839.967111 1587.509492,880.222960 1594.514171,898.933752 1594.616809,980.343575 1594.671235,1024.667091"/>
    <poly id="134273806" type="amenity.parking" color="184,184,179" fill="1" layer="-1.00" shape="1636.631853,939.258566 1634.720896,966.160901 1599.010089,977.082296 1599.716266,920.321419 1633.758243,937.544823 1636.631853,939.258566"/>
    <poly id="135696439" type="leisure.pitch" color="207,245,201" fill="1" layer="-2.00" shape="2930.851017,826.555808 2931.665432,830.438013 2949.562848,826.676468 2942.049906,791.116020 2924.159618,794.866393 2930.851017,826.555808"/>
    <poly id="135696439#1" type="sport.soccer" color="79,230,125" fill="1" layer="-2.00" shape="2930.851017,826.555808 2931.665432,830.438013 2949.562848,826.676468 2942.049906,791.116020 2924.159618,794.866393 2930.851017,826.555808"/>
    <poly id="135696441" type="building.yes" color="255,230,230" fill="1" layer="-1.00" shape="2862.386390,1010.426623 2864.028981,1009.919738 2863.529084,1007.912937 2865.545660,1007.290844 2865.046124,1005.317390 2866.988416,1004.629396 2866.511309,1002.689052 2868.425136,1002.090303 2867.969859,1000.127489 2869.986199,999.483165 2869.411898,997.399348 2871.407249,996.855305 2870.999472,995.203257 2871.402802,994.398472 2870.529085,993.885399 2870.128665,992.233271 2868.111602,992.810900 2867.508593,990.794095 2865.447631,991.394433 2864.874408,989.410658 2862.805009,989.911033 2862.275323,987.871203 2860.235470,988.382378 2859.640055,986.387726 2857.570655,986.888104 2856.975358,984.904568 2855.222892,985.457110 2854.519335,985.031139 2854.115406,985.780347 2852.457976,986.276278 2853.038081,988.215509 2850.897157,988.905652 2851.495491,990.488939 2849.733971,993.609633 2848.282184,996.115543 2846.529962,996.690319 2847.030706,998.774929 2845.020885,999.341371 2845.569764,1001.114182 2845.114102,1001.841715 2845.913534,1002.288883 2846.394043,1003.862324 2848.382513,1003.362816 2848.984688,1005.301809 2851.069033,1004.823501 2851.597881,1006.785519 2853.667273,1006.285139 2854.218669,1008.291383 2856.281304,1007.846663 2856.831979,1009.786212 2858.900530,1009.208023 2859.451685,1011.192036 2861.198467,1010.795195 2861.880431,1011.265869 2862.386390,1010.426623"/>
    <poly id="135696442" type="leisure.pitch" color="207,245,201" fill="1" layer="-2.00" shape="2912.229384,826.612111 2913.004870,830.294626 2930.851017,826.555808 2924.159618,794.866393 2923.330120,790.951000 2905.491341,794.700877 2912.229384,826.612111"/>
    <poly id="135696442#1" type="sport.soccer" color="79,230,125" fill="1" layer="-2.00" shape="2912.229384,826.612111 2913.004870,830.294626 2930.851017,826.555808 2924.159618,794.866393 2923.330120,790.951000 2905.491341,794.700877 2912.229384,826.612111"/>
    <poly id="135702203" type="building.yes" color="255,230,230" fill="1" layer="-1.00" shape="3828.745592,555.461211 3820.179968,553.295436 3821.349570,547.724477 3806.669487,544.178462 3805.317623,549.907000 3797.921500,548.395856 3798.833245,544.873173 3790.139567,542.430877 3787.934752,550.981104 3790.178062,551.590933 3789.331680,555.724361 3793.973977,557.053537 3791.952029,565.501765 3802.602314,567.889919 3804.642957,558.429843 3806.164927,551.398801 3814.329731,553.235301 3813.107776,559.418256 3817.805615,560.435584 3818.254471,559.052299 3824.732230,560.695513 3828.745592,555.461211"/>
    <poly id="135702204" type="building.yes" color="255,230,230" fill="1" layer="-1.00" shape="3546.455324,628.437664 3544.507847,625.212262 3540.315272,623.967429 3537.265411,625.689779 3536.625582,627.786619 3536.030608,629.949683 3537.289493,632.771101 3542.036332,634.243475 3545.018789,632.410676 3546.455324,628.437664"/>
    <poly id="140048143" type="amenity.social_facility" color="237,199,199" fill="1" layer="-1.00" shape="3641.103469,2244.631422 3653.295226,1978.535919 3576.658968,1965.423500 3541.549459,1960.039625 3515.785335,1947.374480 3492.262262,1920.711302 3468.354947,1900.789292 3441.579989,1889.258115 3423.300699,1887.975075 3392.844510,1901.597058 3339.395055,1934.642522 3326.670754,1945.117775 3322.913262,1956.241802 3319.498118,1966.361622 3281.988527,2150.818703 3269.215385,2202.628067 3290.374466,2242.756265 3343.151403,2239.244520 3641.103469,2244.631422"/>
    <poly id="140048144" type="landuse.forest" color="140,196,107" fill="1" layer="-3.00" shape="3580.041121,2220.313721 3522.259999,2124.478624 3480.041850,2054.058188 3452.401345,2007.606271 3413.614327,1980.951030 3322.913262,1956.241802 3326.670754,1945.117775 3339.395055,1934.642522 3392.844510,1901.597058 3423.300699,1887.975075 3441.579989,1889.258115 3468.354947,1900.789292 3492.262262,1920.711302 3511.690957,1940.770191 3516.973329,1946.339016 3541.549459,1960.039625 3576.658968,1965.423500 3653.295226,1978.535919 3641.103469,2244.631422 3580.041121,2220.313721"/>
    <poly id="140424067" type="amenity.parking" color="184,184,179" fill="1" layer="-1.00" shape="2772.574600,777.025947 2787.895148,775.826448 2788.838638,767.133787 2790.203128,759.270361 2793.675665,754.474709 2795.038003,746.411198 2793.667349,734.641875 2791.507882,726.816534 2776.680204,734.825481 2779.251797,742.657479 2779.531446,749.469245 2777.943072,755.678645 2774.481724,761.508077 2772.886749,767.106110 2772.532179,773.102065 2772.574600,777.025947"/>
    <poly id="140424070" type="amenity.parking" color="184,184,179" fill="1" layer="-1.00" shape="2739.756757,800.615598 2762.090931,796.861050 2780.275148,793.084747 2780.759750,795.714264 2781.572323,800.096739 2740.371622,807.123575 2739.756757,800.615598"/>
    <poly id="140424072" type="amenity.parking" color="184,184,179" fill="1" layer="-1.00" shape="2759.678129,672.386619 2770.940789,668.095933 2784.586263,661.656147 2737.775613,624.942205 2634.090240,609.566889 2632.063166,626.887081 2636.699314,627.626164 2724.845944,641.779975 2759.678129,672.386619"/>
    <poly id="140538734" type="building.university" color="255,230,230" fill="1" layer="-1.00" shape="4773.167549,1450.391785 4748.203773,1455.099695 4740.632379,1413.489969 4804.223956,1402.152657 4807.426952,1420.017629 4816.899940,1418.362255 4813.695812,1400.386120 4833.890068,1396.840030 4836.780154,1412.929558 4839.790316,1412.342265 4839.477499,1410.566805 4845.646107,1409.501846 4843.068861,1395.187774 4899.389937,1385.039189 4902.984793,1405.234700 4837.558715,1417.034733 4841.309023,1438.006778 4879.785921,1431.045989 4883.454383,1451.240721 4854.156316,1456.549248 4854.470286,1458.435867 4841.179226,1460.798078 4840.864090,1458.800301 4792.914523,1467.416760 4793.691947,1471.410771 4785.689080,1472.939646 4786.157164,1475.491674 4752.891757,1481.286893 4749.447007,1461.423408 4822.132741,1447.434243 4817.370337,1421.136601 4807.970913,1422.791206 4808.604696,1427.120231 4776.949162,1432.120285 4776.315355,1427.791263 4769.484739,1428.863222 4773.167549,1450.391785"/>
    <poly id="140997926" type="building.yes" color="255,230,230" fill="1" layer="-1.00" shape="4911.928876,1093.319541 4912.639000,1089.454522 4916.619477,1090.180081 4915.909350,1094.045099 4911.928876,1093.319541"/>