<?xml version="1.0" encoding="UTF-8"?>

<!-- generated on 01/28/21 10:17:02 by Eclipse SUMO duarouter Version 1.8.0
<configuration xmlns:xsi="http://www.w3.org/2001/XMLSchema-instance" xsi:noNamespaceSchemaLocation="http://sumo.dlr.de/xsd/duarouterConfiguration.xsd">

    <input>
        <net-file value="C:\Users\BenoitG\2021-01-28-10-16-40\osm.net.xml"/>
        <route-files value="C:\Users\BenoitG\2021-01-28-10-16-40\osm.passenger.trips.xml"/>
    </input>

    <output>
        <output-file value="C:\Users\BenoitG\2021-01-28-10-16-40\osm.passenger.trips.xml.tmp"/>
        <write-trips value="true"/>
    </output>

    <time>
        <begin value="0"/>
        <end value="3600"/>
    </time>

    <report>
        <no-warnings value="true"/>
        <ignore-errors value="true"/>
        <no-step-log value="true"/>
    </report>

</configuration>
-->

<routes xmlns:xsi="http://www.w3.org/2001/XMLSchema-instance" xsi:noNamespaceSchemaLocation="http://sumo.dlr.de/xsd/routes_file.xsd">
    <vType id="veh_passenger" vClass="passenger"/>
    <trip id="veh0" type="veh_passenger" depart="0.00" departLane="best" from="363082411#3" to="-131339230"/>
    <trip id="veh1" type="veh_passenger" depart="1.26" departLane="best" departSpeed="max" from="-531734424" to="-41656940#2"/>
    <trip id="veh2" type="veh_passenger" depart="2.52" departLane="best" from="442773109#1" to="383176691#4"/>
    <trip id="veh4" type="veh_passenger" depart="5.05" departLane="best" from="140997927#2" to="-134230455#5"/>
    <trip id="veh5" type="veh_passenger" depart="6.31" departLane="best" departSpeed="max" from="-42294196#1" to="174970475#4"/>
    <trip id="veh7" type="veh_passenger" depart="8.83" departLane="best" from="37768338#1" to="22736355#3"/>
    <trip id="veh8" type="veh_passenger" depart="10.10" departLane="best" from="-423114711#2" to="22736997#1"/>
    <trip id="veh9" type="veh_passenger" depart="11.36" departLane="best" from="55874618#3" to="-118793670#1"/>
    <trip id="veh10" type="veh_passenger" depart="12.62" departLane="best" departSpeed="max" from="55874617" to="404287181#1"/>
    <trip id="veh11" type="veh_passenger" depart="13.88" departLane="best" from="-747059917" to="-263684088"/>
    <trip id="veh12" type="veh_passenger" depart="15.14" departLane="best" from="767622440#3" to="-606061323#4"/>
    <trip id="veh14" type="veh_passenger" depart="17.67" departLane="best" from="606974212#1" to="22741117#4"/>
    <trip id="veh15" type="veh_passenger" depart="18.93" departLane="best" departSpeed="max" from="55874617" to="41656940#1"/>
    <trip id="veh16" type="veh_passenger" depart="20.19" departLane="best" from="22736365#3" to="832749273#1"/>
    <trip id="veh17" type="veh_passenger" depart="21.45" departLane="best" from="115229317#1" to="22736360#5"/>
    <trip id="veh18" type="veh_passenger" depart="22.72" departLane="best" from="577266859" to="233525228#1"/>
    <trip id="veh19" type="veh_passenger" depart="23.98" departLane="best" from="618971108#0" to="22736381#5"/>
    <trip id="veh20" type="veh_passenger" depart="25.24" departLane="best" from="414507708" to="-143310170"/>
    <trip id="veh21" type="veh_passenger" depart="26.50" departLane="best" from="-42724052" to="-51784846"/>
    <trip id="veh22" type="veh_passenger" depart="27.76" departLane="best" from="-20442961#0" to="-42724035"/>
    <trip id="veh23" type="veh_passenger" depart="29.03" departLane="best" from="-22736367" to="-482015497#0"/>
    <trip id="veh24" type="veh_passenger" depart="30.29" departLane="best" from="363081449#1" to="-684006412#1"/>
    <trip id="veh25" type="veh_passenger" depart="31.55" departLane="best" departSpeed="max" from="-97050360#1" to="-408883117"/>
    <trip id="veh26" type="veh_passenger" depart="32.81" departLane="best" from="-489344451#1" to="741972945"/>
    <trip id="veh27" type="veh_passenger" depart="34.07" departLane="best" from="376385690#4" to="22763019"/>
    <trip id="veh28" type="veh_passenger" depart="35.34" departLane="best" from="-383176691#5" to="41656940#0"/>
    <trip id="veh29" type="veh_passenger" depart="36.60" departLane="best" from="-37768338#0" to="-741201990#2"/>
    <trip id="veh30" type="veh_passenger" depart="37.86" departLane="best" from="96000893#2" to="26611647#1"/>
    <trip id="veh31" type="veh_passenger" depart="39.12" departLane="best" from="22736381#8" to="392689407#5"/>
    <trip id="veh32" type="veh_passenger" depart="40.38" departLane="best" from="605051699#5" to="482015495"/>
    <trip id="veh33" type="veh_passenger" depart="41.65" departLane="best" from="-42724053#1" to="-134233676#2"/>
    <trip id="veh34" type="veh_passenger" depart="42.91" departLane="best" from="-684006411#13" to="-461622393"/>
    <trip id="veh35" type="veh_passenger" depart="44.17" departLane="best" from="-41656940#0" to="758213442#1"/>
    <trip id="veh36" type="veh_passenger" depart="45.43" departLane="best" from="671116033#0" to="-55874618#3"/>
    <trip id="veh37" type="veh_passenger" depart="46.70" departLane="best" from="383176691#3" to="-797720341#0"/>
    <trip id="veh38" type="veh_passenger" depart="47.96" departLane="best" from="697849872" to="15229923#1"/>
    <trip id="veh40" type="veh_passenger" depart="50.48" departLane="best" from="22736995#0" to="-447214443#1"/>
    <trip id="veh41" type="veh_passenger" depart="51.74" departLane="best" from="22763028" to="697770118#2"/>
    <trip id="veh42" type="veh_passenger" depart="53.01" departLane="best" departSpeed="max" from="119870354" to="-41656939#3"/>
    <trip id="veh43" type="veh_passenger" depart="54.27" departLane="best" from="97236161" to="179116689#7"/>
    <trip id="veh44" type="veh_passenger" depart="55.53" departLane="best" from="-22736358#1" to="-143311245#0"/>
    <trip id="veh45" type="veh_passenger" depart="56.79" departLane="best" from="-22736380#1" to="263684087#1"/>
    <trip id="veh46" type="veh_passenger" depart="58.05" departLane="best" departSpeed="max" from="554317503#0" to="131335281#1"/>
    <trip id="veh47" type="veh_passenger" depart="59.32" departLane="best" from="-174970470#0" to="-747059917"/>
    <trip id="veh48" type="veh_passenger" depart="60.58" departLane="best" from="97050360#0" to="20437823"/>
    <trip id="veh49" type="veh_passenger" depart="61.84" departLane="best" from="832745414#1" to="667143869#3"/>
    <trip id="veh50" type="veh_passenger" depart="63.10" departLane="best" from="-131335282#0" to="414507703"/>
    <trip id="veh52" type="veh_passenger" depart="65.63" departLane="best" from="-489344451#0" to="26824596"/>
    <trip id="veh53" type="veh_passenger" depart="66.89" departLane="best" from="-22736381#3" to="134889167#1"/>
    <trip id="veh54" type="veh_passenger" depart="68.15" departLane="best" from="158082088#2" to="767623221"/>
    <trip id="veh55" type="veh_passenger" depart="69.41" departLane="best" from="671113567#2" to="-44848109#0"/>
    <trip id="veh56" type="veh_passenger" depart="70.67" departLane="best" from="20437787" to="-383176690#2"/>
    <trip id="veh57" type="veh_passenger" depart="71.94" departLane="best" from="697770152" to="677368054#0"/>
    <trip id="veh58" type="veh_passenger" depart="73.20" departLane="best" from="-609807963" to="26611620#1"/>
    <trip id="veh59" type="veh_passenger" depart="74.46" departLane="best" from="26611620#0" to="-263684087#0"/>
    <trip id="veh61" type="veh_passenger" depart="76.98" departLane="best" from="51750135" to="20437833#0"/>
    <trip id="veh62" type="veh_passenger" depart="78.25" departLane="best" from="-134233676#5" to="741201990#1"/>
    <trip id="veh63" type="veh_passenger" depart="79.51" departLane="best" from="671116038#2" to="605051699#5"/>
    <trip id="veh65" type="veh_passenger" depart="82.03" departLane="best" from="671116038#0" to="761587161#2"/>
    <trip id="veh66" type="veh_passenger" depart="83.29" departLane="best" from="-219752764#1" to="162031199#0"/>
    <trip id="veh67" type="veh_passenger" depart="84.56" departLane="best" from="-174970475#3" to="44848109#1"/>
    <trip id="veh68" type="veh_passenger" depart="85.82" departLane="best" from="482015496#0" to="-22736381#5"/>
    <trip id="veh69" type="veh_passenger" depart="87.08" departLane="best" from="174955283#2" to="22736360#0"/>
    <trip id="veh70" type="veh_passenger" depart="88.34" departLane="best" from="-48515891#6" to="684006411#1"/>
    <trip id="veh71" type="veh_passenger" depart="89.60" departLane="best" from="140997933" to="-414507701"/>
    <trip id="veh72" type="veh_passenger" depart="90.87" departLane="best" from="22736369" to="41656940#1"/>
    <trip id="veh73" type="veh_passenger" depart="92.13" departLane="best" from="-414507702#1" to="-55874617"/>
    <trip id="veh74" type="veh_passenger" depart="93.39" departLane="best" from="96000896#2" to="316905861#3"/>
    <trip id="veh76" type="veh_passenger" depart="95.91" departLane="best" departSpeed="max" from="-22736385" to="-41656941#1"/>
    <trip id="veh77" type="veh_passenger" depart="97.18" departLane="best" departSpeed="max" from="-741201990#3" to="22736996#1"/>
    <trip id="veh78" type="veh_passenger" depart="98.44" departLane="best" from="-442436506#0" to="-41656939#5"/>
    <trip id="veh80" type="veh_passenger" depart="100.96" departLane="best" from="-42724053#1" to="697865649"/>
    <trip id="veh81" type="veh_passenger" depart="102.22" departLane="best" departSpeed="max" from="61884384" to="-164014457#1"/>
    <trip id="veh82" type="veh_passenger" depart="103.49" departLane="best" from="-446506377#2" to="376385690#4"/>
    <trip id="veh83" type="veh_passenger" depart="104.75" departLane="best" from="-417206210#0" to="-22736382#3"/>
    <trip id="veh84" type="veh_passenger" depart="106.01" departLane="best" from="720966385#2" to="22736375#1"/>
    <trip id="veh85" type="veh_passenger" depart="107.27" departLane="best" from="174955280#1" to="48515891#5"/>
    <trip id="veh86" type="veh_passenger" depart="108.53" departLane="best" departSpeed="max" from="55874617" to="-393281020"/>
    <trip id="veh87" type="veh_passenger" depart="109.80" departLane="best" from="-22736360#6" to="134233676#1"/>
    <trip id="veh88" type="veh_passenger" depart="111.06" departLane="best" from="140997936" to="15389819#4"/>
    <trip id="veh89" type="veh_passenger" depart="112.32" departLane="best" from="42724052" to="383176690#2"/>
    <trip id="veh91" type="veh_passenger" depart="114.84" departLane="best" from="131335282#4" to="-60844541#1"/>
    <trip id="veh92" type="veh_passenger" depart="116.11" departLane="best" from="618971108#0" to="-442436509"/>
    <trip id="veh94" type="veh_passenger" depart="118.63" departLane="best" from="140997927#2" to="-482015497#1"/>
    <trip id="veh95" type="veh_passenger" depart="119.89" departLane="best" from="-475020758#5" to="720574245#0"/>
    <trip id="veh96" type="veh_passenger" depart="121.15" departLane="best" from="15229923#1" to="667143869#4"/>
    <trip id="veh98" type="veh_passenger" depart="123.68" departLane="best" from="97236176" to="606974210"/>
    <trip id="veh99" type="veh_passenger" depart="124.94" departLane="best" from="832654536#0" to="720966385#0"/>
    <trip id="veh100" type="veh_passenger" depart="126.20" departLane="best" from="606974215" to="-339736822#2"/>
    <trip id="veh101" type="veh_passenger" depart="127.46" departLane="best" from="174970475#1" to="-414507703"/>
    <trip id="veh103" type="veh_passenger" depart="129.99" departLane="best" from="115229318" to="96000895#0"/>
    <trip id="veh104" type="veh_passenger" depart="131.25" departLane="best" from="158082088#3" to="131335282#1"/>
    <trip id="veh105" type="veh_passenger" depart="132.51" departLane="best" from="767622440#3" to="97236164"/>
    <trip id="veh106" type="veh_passenger" depart="133.77" departLane="best" from="22736381#6" to="414507699"/>
    <trip id="veh107" type="veh_passenger" depart="135.04" departLane="best" from="-339736822#2" to="-532830795#1"/>
    <trip id="veh108" type="veh_passenger" depart="136.30" departLane="best" from="832654536#0" to="22736381#8"/>
    <trip id="veh109" type="veh_passenger" depart="137.56" departLane="best" from="22736370#6" to="42724053#1"/>
    <trip id="veh110" type="veh_passenger" depart="138.82" departLane="best" from="-174955283#0" to="22736385"/>
    <trip id="veh111" type="veh_passenger" depart="140.09" departLane="best" from="20437797#4" to="61935857#0"/>
    <trip id="veh112" type="veh_passenger" depart="141.35" departLane="best" from="-363081449#3" to="798625930"/>
    <trip id="veh113" type="veh_passenger" depart="142.61" departLane="best" departSpeed="max" from="-20442961#1" to="-392689404"/>
    <trip id="veh114" type="veh_passenger" depart="143.87" departLane="best" from="233525237" to="383176691#0"/>
    <trip id="veh115" type="veh_passenger" depart="145.13" departLane="best" from="-442773123" to="-22736372#0"/>
    <trip id="veh117" type="veh_passenger" depart="147.66" departLane="best" from="135702200#1" to="22736385"/>
    <trip id="veh118" type="veh_passenger" depart="148.92" departLane="best" from="22736358#3" to="741972943"/>
    <trip id="veh119" type="veh_passenger" depart="150.18" departLane="best" from="-414507705" to="410000810#8"/>
    <trip id="veh120" type="veh_passenger" depart="151.44" departLane="best" from="-447214435" to="-797720341#0"/>
    <trip id="veh121" type="veh_passenger" depart="152.71" departLane="best" from="404275706#1" to="-554317503#0"/>
    <trip id="veh122" type="veh_passenger" depart="153.97" departLane="best" from="-684006411#2" to="442773112#0"/>
    <trip id="veh123" type="veh_passenger" depart="155.23" departLane="best" from="-20437775#0" to="15229923#0"/>
    <trip id="veh124" type="veh_passenger" depart="156.49" departLane="best" from="-20437775#1" to="-414507702#1"/>
    <trip id="veh126" type="veh_passenger" depart="159.02" departLane="best" from="671165804" to="684006412#0"/>
    <trip id="veh128" type="veh_passenger" depart="161.54" departLane="best" departSpeed="max" from="26824560" to="96000896#0"/>
    <trip id="veh129" type="veh_passenger" depart="162.80" departLane="best" from="383176690#4" to="-118794041"/>
    <trip id="veh130" type="veh_passenger" depart="164.06" departLane="best" departSpeed="max" from="56008759#0" to="-554317503#0"/>
    <trip id="veh131" type="veh_passenger" depart="165.33" departLane="best" from="392689407#4" to="747059915#0"/>
    <trip id="veh132" type="veh_passenger" depart="166.59" departLane="best" from="-233525235" to="-22736369"/>
    <trip id="veh133" type="veh_passenger" depart="167.85" departLane="best" from="-52502593#1" to="22741117#6"/>
    <trip id="veh134" type="veh_passenger" depart="169.11" departLane="best" from="42474484#1" to="-408197310#2"/>
    <trip id="veh135" type="veh_passenger" depart="170.37" departLane="best" departSpeed="max" from="362262996" to="-44848109#1"/>
    <trip id="veh136" type="veh_passenger" depart="171.64" departLane="best" from="179116689#2" to="697865649"/>
    <trip id="veh137" type="veh_passenger" depart="172.90" departLane="best" from="606974210" to="-20437775#0"/>
    <trip id="veh138" type="veh_passenger" depart="174.16" departLane="best" from="140997936" to="-482015496#0"/>
    <trip id="veh139" type="veh_passenger" depart="175.42" departLane="best" from="-118793670#1" to="47519280#0"/>
    <trip id="veh140" type="veh_passenger" depart="176.68" departLane="best" from="363081449#3" to="-447214443#0"/>
    <trip id="veh141" type="veh_passenger" depart="177.95" departLane="best" from="442773113" to="22736360#4"/>
    <trip id="veh142" type="veh_passenger" depart="179.21" departLane="best" from="142757141#0" to="-118840359"/>
    <trip id="veh143" type="veh_passenger" depart="180.47" departLane="best" departSpeed="max" from="-20437775#2" to="697183346#1"/>
    <trip id="veh144" type="veh_passenger" depart="181.73" departLane="best" from="697183355#6" to="22736355#4"/>
    <trip id="veh145" type="veh_passenger" depart="182.99" departLane="best" from="581669017#3" to="22736384#0"/>
    <trip id="veh146" type="veh_passenger" depart="184.26" departLane="best" from="-26824596" to="-22736381#2"/>
    <trip id="veh147" type="veh_passenger" depart="185.52" departLane="best" from="-667143869#4" to="697770118#4"/>
    <trip id="veh148" type="veh_passenger" depart="186.78" departLane="best" departSpeed="max" from="55874606#0" to="667143869#2"/>
    <trip id="veh149" type="veh_passenger" depart="188.04" departLane="best" from="697183355#0" to="-414129015"/>
    <trip id="veh150" type="veh_passenger" depart="189.30" departLane="best" from="-475020758#5" to="-22736355#3"/>
    <trip id="veh151" type="veh_passenger" depart="190.57" departLane="best" departSpeed="max" from="51784846" to="697183346#3"/>
    <trip id="veh152" type="veh_passenger" depart="191.83" departLane="best" departSpeed="max" from="131339230" to="233525265"/>
    <trip id="veh153" type="veh_passenger" depart="193.09" departLane="best" from="-339736822#2" to="741201990#3"/>
    <trip id="veh154" type="veh_passenger" depart="194.35" departLane="best" from="61935857#3" to="832749276"/>
    <trip id="veh155" type="veh_passenger" depart="195.61" departLane="best" departSpeed="max" from="55874620" to="684607203#1"/>
    <trip id="veh156" type="veh_passenger" depart="196.88" departLane="best" from="-720966385#1" to="741201990#3"/>
    <trip id="veh157" type="veh_passenger" depart="198.14" departLane="best" departSpeed="max" from="55874614" to="67070261"/>
    <trip id="veh158" type="veh_passenger" depart="199.40" departLane="best" departSpeed="max" from="55874620" to="-461622393"/>
    <trip id="veh159" type="veh_passenger" depart="200.66" departLane="best" from="533535799" to="-22736360#1"/>
    <trip id="veh160" type="veh_passenger" depart="201.92" departLane="best" from="667143869#4" to="665730193"/>
    <trip id="veh161" type="veh_passenger" depart="203.19" departLane="best" from="-42474484#1" to="577266862#0"/>
    <trip id="veh163" type="veh_passenger" depart="205.71" departLane="best" departSpeed="max" from="55874606#0" to="-42294196#0"/>
    <trip id="veh164" type="veh_passenger" depart="206.97" departLane="best" from="-140997927#2" to="-399859419#0"/>
    <trip id="veh165" type="veh_passenger" depart="208.23" departLane="best" from="-715087202#1" to="67070261"/>
    <trip id="veh166" type="veh_passenger" depart="209.50" departLane="best" departSpeed="max" from="807670432" to="-482015497#2"/>
    <trip id="veh167" type="veh_passenger" depart="210.76" departLane="best" from="374675896#1" to="-797720341#3"/>
    <trip id="veh168" type="veh_passenger" depart="212.02" departLane="best" from="832749275#3" to="20442961#1"/>
    <trip id="veh169" type="veh_passenger" depart="213.28" departLane="best" from="741703406" to="-22736368"/>
    <trip id="veh170" type="veh_passenger" depart="214.54" departLane="best" from="832654537#2" to="-383176690#2"/>
    <trip id="veh171" type="veh_passenger" depart="215.81" departLane="best" from="797720341#2" to="-461622393"/>
    <trip id="veh172" type="veh_passenger" depart="217.07" departLane="best" from="-22736379#1" to="134889167#0"/>
    <trip id="veh173" type="veh_passenger" depart="218.33" departLane="best" from="42724038#1" to="-55874618#1"/>
    <trip id="veh174" type="veh_passenger" depart="219.59" departLane="best" from="26611562" to="179116689#8"/>
    <trip id="veh175" type="veh_passenger" depart="220.85" departLane="best" from="118793670#0" to="22736381#2"/>
    <trip id="veh176" type="veh_passenger" depart="222.12" departLane="best" departSpeed="max" from="-482015495" to="408197310#5"/>
    <trip id="veh177" type="veh_passenger" depart="223.38" departLane="best" from="-115229320#0" to="720845272#2"/>
    <trip id="veh178" type="veh_passenger" depart="224.64" departLane="best" from="22736368" to="414507700#1"/>
    <trip id="veh179" type="veh_passenger" depart="225.90" departLane="best" from="-832745416#2" to="-164014457#0"/>
    <trip id="veh180" type="veh_passenger" depart="227.16" departLane="best" from="392689407#5" to="-56008763"/>
    <trip id="veh181" type="veh_passenger" depart="228.43" departLane="best" from="-684006411#10" to="60844541#1"/>
    <trip id="veh182" type="veh_passenger" depart="229.69" departLane="best" departSpeed="max" from="42724035" to="-554317503#0"/>
    <trip id="veh183" type="veh_passenger" depart="230.95" departLane="best" from="-67070259" to="115229317#1"/>
    <trip id="veh184" type="veh_passenger" depart="232.21" departLane="best" from="131335282#2" to="-527943457#1"/>
    <trip id="veh186" type="veh_passenger" depart="234.74" departLane="best" from="741972943" to="383176691#5"/>
    <trip id="veh187" type="veh_passenger" depart="236.00" departLane="best" from="697183355#5" to="22767299#1"/>
    <trip id="veh188" type="veh_passenger" depart="237.26" departLane="best" from="-61935857#0" to="22736358#3"/>
    <trip id="veh189" type="veh_passenger" depart="238.52" departLane="best" from="-115229317#1" to="-489344451#1"/>
    <trip id="veh190" type="veh_passenger" depart="239.79" departLane="best" departSpeed="max" from="143310170" to="22736382#0"/>
    <trip id="veh191" type="veh_passenger" depart="241.05" departLane="best" from="383176691#0" to="15389819#0"/>
    <trip id="veh193" type="veh_passenger" depart="243.57" departLane="best" from="174955280#2" to="697770118#8"/>
    <trip id="veh194" type="veh_passenger" depart="244.83" departLane="best" departSpeed="max" from="55874606#0" to="-363081449#4"/>
    <trip id="veh196" type="veh_passenger" depart="247.36" departLane="best" departSpeed="max" from="362262996" to="-606061323#0"/>
    <trip id="veh197" type="veh_passenger" depart="248.62" departLane="best" departSpeed="max" from="56008759#0" to="442773109#1"/>
    <trip id="veh198" type="veh_passenger" depart="249.88" departLane="best" from="404277029#0" to="-41656941#1"/>
    <trip id="veh199" type="veh_passenger" depart="251.14" departLane="best" from="-414507699" to="-131335283"/>
    <trip id="veh200" type="veh_passenger" depart="252.41" departLane="best" departSpeed="max" from="-47463290#1" to="158082088#2"/>
    <trip id="veh201" type="veh_passenger" depart="253.67" departLane="best" from="606974222" to="-174955280#3"/>
    <trip id="veh202" type="veh_passenger" depart="254.93" departLane="best" from="134233676#6" to="26611452"/>
    <trip id="veh203" type="veh_passenger" depart="256.19" departLane="best" from="-408197311#0" to="404277029#0"/>
    <trip id="veh205" type="veh_passenger" depart="258.72" departLane="best" from="383176691#4" to="-115229320#2"/>
    <trip id="veh206" type="veh_passenger" depart="259.98" departLane="best" from="44848109#0" to="475020758#5"/>
    <trip id="veh207" type="veh_passenger" depart="261.24" departLane="best" from="-22736372#0" to="131339233"/>
    <trip id="veh208" type="veh_passenger" depart="262.50" departLane="best" from="-392689407#4" to="783248709#2"/>
    <trip id="veh210" type="veh_passenger" depart="265.03" departLane="best" from="-475020758#4" to="609807964"/>
    <trip id="veh211" type="veh_passenger" depart="266.29" departLane="best" from="158082088#5" to="55429077#0"/>
    <trip id="veh212" type="veh_passenger" depart="267.55" departLane="best" from="399859418#1" to="96000896#0"/>
    <trip id="veh213" type="veh_passenger" depart="268.81" departLane="best" from="233525237" to="767622440#0"/>
    <trip id="veh214" type="veh_passenger" depart="270.07" departLane="best" from="684607203#0" to="22764743#0"/>
    <trip id="veh215" type="veh_passenger" depart="271.34" departLane="best" from="424959220#2" to="174970475#3"/>
    <trip id="veh216" type="veh_passenger" depart="272.60" departLane="best" from="697183346#7" to="42724036#2"/>
    <trip id="veh217" type="veh_passenger" depart="273.86" departLane="best" from="174955283#0" to="-442773125#2"/>
    <trip id="veh218" type="veh_passenger" depart="275.12" departLane="best" from="-475020758#1" to="26611620#0"/>
    <trip id="veh219" type="veh_passenger" depart="276.38" departLane="best" from="482015496#0" to="20437775#2"/>
    <trip id="veh220" type="veh_passenger" depart="277.65" departLane="best" departSpeed="max" from="326226466" to="-47519280#7"/>
    <trip id="veh221" type="veh_passenger" depart="278.91" departLane="best" from="-20437797#1" to="-48832578"/>
    <trip id="veh222" type="veh_passenger" depart="280.17" departLane="best" from="-52502593#0" to="-55874621"/>
    <trip id="veh224" type="veh_passenger" depart="282.69" departLane="best" from="41656939#5" to="-160212606#0"/>
    <trip id="veh225" type="veh_passenger" depart="283.96" departLane="best" from="131340350#0" to="219752764#3"/>
    <trip id="veh226" type="veh_passenger" depart="285.22" departLane="best" from="134889167#0" to="-408197311#3"/>
    <trip id="veh227" type="veh_passenger" depart="286.48" departLane="best" from="135702201#1" to="697865649"/>
    <trip id="veh228" type="veh_passenger" depart="287.74" departLane="best" from="22763019" to="404275706#3"/>
    <trip id="veh229" type="veh_passenger" depart="289.00" departLane="best" from="610270522#0" to="47463290#1"/>
    <trip id="veh230" type="veh_passenger" depart="290.27" departLane="best" from="115229320#0" to="-118793670#0"/>
    <trip id="veh231" type="veh_passenger" depart="291.53" departLane="best" from="-767622440#3" to="442773114"/>
    <trip id="veh233" type="veh_passenger" depart="294.05" departLane="best" from="135702200#1" to="42724053#0"/>
    <trip id="veh234" type="veh_passenger" depart="295.31" departLane="best" departSpeed="max" from="22736374#0" to="22741117#3"/>
    <trip id="veh235" type="veh_passenger" depart="296.58" departLane="best" from="-423114711#2" to="-41656939#3"/>
    <trip id="veh236" type="veh_passenger" depart="297.84" departLane="best" from="145831277#2" to="-134230455#2"/>
    <trip id="veh237" type="veh_passenger" depart="299.10" departLane="best" departSpeed="max" from="-741201990#3" to="392575750"/>
    <trip id="veh238" type="veh_passenger" depart="300.36" departLane="best" departSpeed="max" from="131339230" to="-334242030"/>
    <trip id="veh239" type="veh_passenger" depart="301.62" departLane="best" from="160248909" to="-22736381#2"/>
    <trip id="veh240" type="veh_passenger" depart="302.89" departLane="best" from="316905861#0" to="-131339230"/>
    <trip id="veh241" type="veh_passenger" depart="304.15" departLane="best" departSpeed="max" from="119870351#0" to="22736370#0"/>
    <trip id="veh242" type="veh_passenger" depart="305.41" departLane="best" from="-140997949" to="26824741"/>
    <trip id="veh243" type="veh_passenger" depart="306.67" departLane="best" from="-243662948#0" to="15229937#4"/>
    <trip id="veh244" type="veh_passenger" depart="307.93" departLane="best" from="-164014448" to="-741201990#2"/>
    <trip id="veh245" type="veh_passenger" depart="309.20" departLane="best" from="-41656940#2" to="-56008761"/>
    <trip id="veh246" type="veh_passenger" depart="310.46" departLane="best" from="475020758#5" to="-741201990#2"/>
    <trip id="veh247" type="veh_passenger" depart="311.72" departLane="best" from="455371648#2" to="605051699#5"/>
    <trip id="veh248" type="veh_passenger" depart="312.98" departLane="best" from="-47519280#8" to="-174970470#3"/>
    <trip id="veh250" type="veh_passenger" depart="315.51" departLane="best" from="97236180#0" to="-66162510#1"/>
    <trip id="veh251" type="veh_passenger" depart="316.77" departLane="best" from="37768338#1" to="482015524#0"/>
    <trip id="veh252" type="veh_passenger" depart="318.03" departLane="best" from="383176690#0" to="442773123"/>
    <trip id="veh254" type="veh_passenger" depart="320.56" departLane="best" from="-134237556" to="-261656893"/>
    <trip id="veh255" type="veh_passenger" depart="321.82" departLane="best" from="-22741121#0" to="376385690#5"/>
    <trip id="veh256" type="veh_passenger" depart="323.08" departLane="best" from="22736997#0" to="-414507708"/>
    <trip id="veh257" type="veh_passenger" depart="324.34" departLane="best" from="414507702#1" to="47463290#1"/>
    <trip id="veh258" type="veh_passenger" depart="325.60" departLane="best" from="-383176690#3" to="22741124#0"/>
    <trip id="veh259" type="veh_passenger" depart="326.87" departLane="best" from="446506377#2" to="-22736367"/>
    <trip id="veh260" type="veh_passenger" depart="328.13" departLane="best" from="56008760#0" to="807017157#0"/>
    <trip id="veh261" type="veh_passenger" depart="329.39" departLane="best" from="-22736379#1" to="-131339230"/>
    <trip id="veh262" type="veh_passenger" depart="330.65" departLane="best" from="-677368054#0" to="383176691#5"/>
    <trip id="veh263" type="veh_passenger" depart="331.91" departLane="best" from="770887940#1" to="-797720341#0"/>
    <trip id="veh264" type="veh_passenger" depart="333.18" departLane="best" from="423114711#1" to="-174955283#6"/>
    <trip id="veh265" type="veh_passenger" depart="334.44" departLane="best" from="408197311#4" to="263684087#1"/>
    <trip id="veh266" type="veh_passenger" depart="335.70" departLane="best" from="-22736369" to="47519280#4"/>
    <trip id="veh267" type="veh_passenger" depart="336.96" departLane="best" from="606974222" to="22737020#9"/>
    <trip id="veh268" type="veh_passenger" depart="338.22" departLane="best" from="-22737000" to="96000893#2"/>
    <trip id="veh269" type="veh_passenger" depart="339.49" departLane="best" from="52502298#0" to="-61935857#3"/>
    <trip id="veh270" type="veh_passenger" depart="340.75" departLane="best" from="142757141#1" to="-698053494#1"/>
    <trip id="veh271" type="veh_passenger" depart="342.01" departLane="best" from="20437822#1" to="-610270522#0"/>
    <trip id="veh272" type="veh_passenger" depart="343.27" departLane="best" from="606974219" to="581669017#4"/>
    <trip id="veh273" type="veh_passenger" depart="344.53" departLane="best" from="363081449#1" to="605051699#1"/>
    <trip id="veh274" type="veh_passenger" depart="345.80" departLane="best" from="41656939#6" to="134889168#0"/>