<?xml version="1.0" encoding="UTF-8"?>

<!-- generated on 01/28/21 10:17:07 by Eclipse SUMO duarouter Version 1.8.0
<configuration xmlns:xsi="http://www.w3.org/2001/XMLSchema-instance" xsi:noNamespaceSchemaLocation="http://sumo.dlr.de/xsd/duarouterConfiguration.xsd">

    <input>
        <net-file value="C:\Users\BenoitG\2021-01-28-10-16-40\osm.net.xml"/>
        <route-files value="C:\Users\BenoitG\2021-01-28-10-16-40\osm.bus.trips.xml"/>
    </input>

    <output>
        <output-file value="C:\Users\BenoitG\2021-01-28-10-16-40\osm.bus.trips.xml.tmp"/>
        <write-trips value="true"/>
    </output>

    <time>
        <begin value="0"/>
        <end value="3600"/>
    </time>

    <report>
        <no-warnings value="true"/>
        <ignore-errors value="true"/>
        <no-step-log value="true"/>
    </report>

</configuration>
-->

<routes xmlns:xsi="http://www.w3.org/2001/XMLSchema-instance" xsi:noNamespaceSchemaLocation="http://sumo.dlr.de/xsd/routes_file.xsd">
    <vType id="bus_bus" vClass="bus"/>
    <trip id="bus0" type="bus_bus" depart="0.00" departLane="best" from="363081449#0" to="-131339230"/>
    <trip id="bus1" type="bus_bus" depart="3.60" departLane="best" from="-52502298#0" to="-41656939#8"/>
    <trip id="bus2" type="bus_bus" depart="7.19" departLane="best" from="436119957#1" to="383176690#1"/>
    <trip id="bus4" type="bus_bus" depart="14.38" departLane="best" from="134233676#5" to="-134233673#0"/>
    <trip id="bus5" type="bus_bus" depart="17.98" departLane="best" departSpeed="max" from="-42294196#1" to="174955284#1"/>
    <trip id="bus6" type="bus_bus" depart="21.58" departLane="best" from="-140997949" to="-404275706#2"/>
    <trip id="bus7" type="bus_bus" depart="25.17" departLane="best" from="37523270#1" to="219719294#3"/>
    <trip id="bus8" type="bus_bus" depart="28.77" departLane="best" departSpeed="max" from="55874614" to="-118793670#1"/>
    <trip id="bus10" type="bus_bus" depart="35.96" departLane="best" departSpeed="max" from="-741201990#3" to="-263684087#2"/>
    <trip id="bus11" type="bus_bus" depart="39.56" departLane="best" from="782860080" to="-56008764"/>
    <trip id="bus13" type="bus_bus" depart="46.75" departLane="best" from="605051700" to="22737020#1"/>
    <trip id="bus14" type="bus_bus" depart="50.35" departLane="best" from="55874608#3" to="41656939#7"/>
    <trip id="bus15" type="bus_bus" depart="53.94" departLane="best" from="22736364#0" to="832745425#1"/>
    <trip id="bus16" type="bus_bus" depart="57.54" departLane="best" departSpeed="max" from="-97050360#1" to="22736355#3"/>
    <trip id="bus17" type="bus_bus" depart="61.13" departLane="best" departSpeed="max" from="56008761" to="22764741#1"/>
    <trip id="bus18" type="bus_bus" depart="64.73" departLane="best" departSpeed="max" from="61884384" to="22736375#1"/>
    <trip id="bus19" type="bus_bus" depart="68.33" departLane="best" from="414507704#1" to="-143311245#0"/>
    <trip id="bus20" type="bus_bus" depart="71.92" departLane="best" from="-42724052" to="-48515891#2"/>
    <trip id="bus21" type="bus_bus" depart="75.52" departLane="best" departSpeed="max" from="-20442961#1" to="-42474484#1"/>
    <trip id="bus22" type="bus_bus" depart="79.12" departLane="best" from="-22736365#0" to="-475020758#4"/>
    <trip id="bus23" type="bus_bus" depart="82.71" departLane="best" from="361585734" to="-684006411#5"/>
    <trip id="bus24" type="bus_bus" depart="86.31" departLane="best" from="-832745421#8" to="-408197311#3"/>
    <trip id="bus25" type="bus_bus" depart="89.90" departLane="best" from="-482015524#1" to="746815354"/>
    <trip id="bus26" type="bus_bus" depart="93.50" departLane="best" from="37522154#1" to="22737021#1"/>
    <trip id="bus27" type="bus_bus" depart="97.10" departLane="best" from="-383176691#0" to="41656939#6"/>
    <trip id="bus28" type="bus_bus" depart="100.69" departLane="best" from="-37520995" to="-720966385#0"/>
    <trip id="bus29" type="bus_bus" depart="104.29" departLane="best" from="863336412#4" to="26611562"/>
    <trip id="bus30" type="bus_bus" depart="107.88" departLane="best" from="22736379#2" to="392689404"/>
    <trip id="bus31" type="bus_bus" depart="111.48" departLane="best" from="581669017#6" to="475020758#1"/>
    <trip id="bus32" type="bus_bus" depart="115.08" departLane="best" from="-42724053#1" to="-134233676#5"/>
    <trip id="bus33" type="bus_bus" depart="118.67" departLane="best" from="-677368054#1" to="-44848109#0"/>
    <trip id="bus34" type="bus_bus" depart="122.27" departLane="best" from="-41656940#1" to="758405104#1"/>
    <trip id="bus35" type="bus_bus" depart="125.87" departLane="best" from="67070261" to="-55874614"/>
    <trip id="bus36" type="bus_bus" depart="129.46" departLane="best" from="380969254" to="-767622440#2"/>
    <trip id="bus37" type="bus_bus" depart="133.06" departLane="best" from="698053494#0" to="142759471"/>
    <trip id="bus39" type="bus_bus" depart="140.25" departLane="best" from="22736381#6" to="-442773125#1"/>
    <trip id="bus40" type="bus_bus" depart="143.85" departLane="best" from="22741117#0" to="697770118#7"/>
    <trip id="bus41" type="bus_bus" depart="147.44" departLane="best" departSpeed="max" from="119617681" to="-414507708"/>
    <trip id="bus42" type="bus_bus" depart="151.04" departLane="best" from="97236161" to="174970474#1"/>
    <trip id="bus43" type="bus_bus" depart="154.63" departLane="best" from="-22736355#1" to="-144929478#0"/>
    <trip id="bus44" type="bus_bus" depart="158.23" departLane="best" from="-22736372#1" to="233525265"/>
    <trip id="bus45" type="bus_bus" depart="161.83" departLane="best" from="52502593#1" to="115229320#2"/>
    <trip id="bus46" type="bus_bus" depart="165.42" departLane="best" from="-174970470#0" to="-741201990#0"/>
    <trip id="bus47" type="bus_bus" depart="169.02" departLane="best" from="97050360#0" to="20437797#1"/>
    <trip id="bus48" type="bus_bus" depart="172.62" departLane="best" from="832745420#1" to="667143869#0"/>
    <trip id="bus49" type="bus_bus" depart="176.21" departLane="best" from="-131335282#1" to="414507698"/>
    <trip id="bus50" type="bus_bus" depart="179.81" departLane="best" from="406017622#3" to="20437853"/>
    <trip id="bus51" type="bus_bus" depart="183.40" departLane="best" from="-22736380#1" to="131335283"/>
    <trip id="bus52" type="bus_bus" depart="187.00" departLane="best" from="15229937#2" to="770887940#1"/>
    <trip id="bus53" type="bus_bus" depart="190.60" departLane="best" from="67070259" to="-442773125#2"/>
    <trip id="bus54" type="bus_bus" depart="194.19" departLane="best" from="20437767#0" to="-37522154#3"/>
    <trip id="bus55" type="bus_bus" depart="197.79" departLane="best" from="698053484#1" to="671165804"/>
    <trip id="bus56" type="bus_bus" depart="201.38" departLane="best" from="-606061323#2" to="26611452"/>
    <trip id="bus57" type="bus_bus" depart="204.98" departLane="best" from="263684087#2" to="-260325008"/>
    <trip id="bus58" type="bus_bus" depart="208.58" departLane="best" departSpeed="max" from="461622393" to="20442961#1"/>
    <trip id="bus59" type="bus_bus" depart="212.17" departLane="best" from="482015524#1" to="20437797#3"/>
    <trip id="bus60" type="bus_bus" depart="215.77" departLane="best" from="-115229319" to="-55874621"/>
    <trip id="bus61" type="bus_bus" depart="219.37" departLane="best" from="-134233676#6" to="741201990#3"/>
    <trip id="bus62" type="bus_bus" depart="222.96" departLane="best" from="671116033#2" to="601666743#2"/>
    <trip id="bus64" type="bus_bus" depart="230.15" departLane="best" from="671116033#0" to="767514293#1"/>
    <trip id="bus65" type="bus_bus" depart="233.75" departLane="best" from="-219719294#5" to="158082088#4"/>
    <trip id="bus67" type="bus_bus" depart="240.94" departLane="best" from="47463290#0" to="-22736381#0"/>
    <trip id="bus68" type="bus_bus" depart="244.54" departLane="best" from="164014452#2" to="219752764#3"/>
    <trip id="bus69" type="bus_bus" depart="248.13" departLane="best" from="-482015497#2" to="684006411#1"/>
    <trip id="bus70" type="bus_bus" depart="251.73" departLane="best" from="134237556" to="-408197311#9"/>
    <trip id="bus71" type="bus_bus" depart="255.33" departLane="best" from="22736364#7" to="41656939#7"/>
    <trip id="bus72" type="bus_bus" depart="258.92" departLane="best" from="-414507701" to="-55874606#2"/>
    <trip id="bus73" type="bus_bus" depart="262.52" departLane="best" departSpeed="max" from="143310170" to="179116689#8"/>
    <trip id="bus74" type="bus_bus" depart="266.12" departLane="best" departSpeed="max" from="-22736385" to="-41656940#2"/>
    <trip id="bus75" type="bus_bus" depart="269.71" departLane="best" departSpeed="max" from="-741201990#3" to="22736384#0"/>
    <trip id="bus76" type="bus_bus" depart="273.31" departLane="best" from="-436113242#0" to="-41656939#1"/>
    <trip id="bus77" type="bus_bus" depart="276.90" departLane="best" from="-20437767#1" to="243662948#1"/>
    <trip id="bus78" type="bus_bus" depart="280.50" departLane="best" from="-42724053#1" to="698053493#0"/>
    <trip id="bus79" type="bus_bus" depart="284.10" departLane="best" from="610270522#0" to="-164014464"/>
    <trip id="bus80" type="bus_bus" depart="287.69" departLane="best" from="-442773123" to="37523270#0"/>
    <trip id="bus81" type="bus_bus" depart="291.29" departLane="best" from="-417206210#0" to="-22736382#0"/>
    <trip id="bus82" type="bus_bus" depart="294.89" departLane="best" from="55874608#3" to="-392689407#3"/>
    <trip id="bus83" type="bus_bus" depart="298.48" departLane="best" from="134889167#0" to="15093785#0"/>
    <trip id="bus84" type="bus_bus" depart="302.08" departLane="best" departSpeed="max" from="42724038#0" to="376385690#5"/>
    <trip id="bus85" type="bus_bus" depart="305.67" departLane="best" from="83487127#0" to="-219719294#3"/>
    <trip id="bus86" type="bus_bus" depart="309.27" departLane="best" departSpeed="max" from="119870351#0" to="-601666743#1"/>
    <trip id="bus87" type="bus_bus" depart="312.87" departLane="best" departSpeed="max" from="61884384" to="-436113242#0"/>
    <trip id="bus88" type="bus_bus" depart="316.46" departLane="best" from="-404277029#1" to="135702201#1"/>
    <trip id="bus89" type="bus_bus" depart="320.06" departLane="best" from="134233676#5" to="-475020758#5"/>
    <trip id="bus90" type="bus_bus" depart="323.65" departLane="best" departSpeed="max" from="-47463290#1" to="720966385#1"/>
    <trip id="bus93" type="bus_bus" depart="334.44" departLane="best" from="97236176" to="605051699#5"/>
    <trip id="bus94" type="bus_bus" depart="338.04" departLane="best" from="832654537#0" to="741201990#2"/>
    <trip id="bus95" type="bus_bus" depart="341.64" departLane="best" from="606061323#1" to="-301754080#1"/>
    <trip id="bus96" type="bus_bus" depart="345.23" departLane="best" from="174955284#2" to="-414507700#0"/>
    <trip id="bus98" type="bus_bus" depart="352.42" departLane="best" departSpeed="max" from="-97050360#1" to="867981793"/>
    <trip id="bus99" type="bus_bus" depart="356.02" departLane="best" from="782860080" to="97236164"/>
    <trip id="bus100" type="bus_bus" depart="359.62" departLane="best" from="22736379#0" to="410000810#6"/>
    <trip id="bus101" type="bus_bus" depart="363.21" departLane="best" from="-339736822#0" to="-51784846"/>
    <trip id="bus102" type="bus_bus" depart="366.81" departLane="best" from="832654537#0" to="22736379#1"/>
    <trip id="bus103" type="bus_bus" depart="370.40" departLane="best" from="22736365#3" to="42724052"/>
    <trip id="bus104" type="bus_bus" depart="374.00" departLane="best" from="-174955283#2" to="22736381#6"/>
    <trip id="bus105" type="bus_bus" depart="377.60" departLane="best" from="20437771#2" to="618971107#1"/>
    <trip id="bus106" type="bus_bus" depart="381.19" departLane="best" from="-361585732#1" to="798625930"/>
    <trip id="bus107" type="bus_bus" depart="384.79" departLane="best" departSpeed="max" from="-20442961#1" to="-383176691#4"/>
    <trip id="bus108" type="bus_bus" depart="388.39" departLane="best" from="-442773109#1" to="-22736370#3"/>
    <trip id="bus110" type="bus_bus" depart="395.58" departLane="best" from="134233673#0" to="22736381#5"/>
    <trip id="bus111" type="bus_bus" depart="399.17" departLane="best" from="219752764#0" to="745161147"/>
    <trip id="bus112" type="bus_bus" depart="402.77" departLane="best" from="-414507704#1" to="408197311#8"/>
    <trip id="bus113" type="bus_bus" depart="406.37" departLane="best" from="-442773125#1" to="-767622440#3"/>
    <trip id="bus114" type="bus_bus" depart="409.96" departLane="best" from="39325781#1" to="-52502593#0"/>
    <trip id="bus115" type="bus_bus" depart="413.56" departLane="best" from="-684006411#1" to="436119957#3"/>
    <trip id="bus116" type="bus_bus" depart="417.15" departLane="best" from="-20437775#1" to="142759471"/>
    <trip id="bus117" type="bus_bus" depart="420.75" departLane="best" departSpeed="max" from="-20437775#2" to="-414507699"/>
    <trip id="bus118" type="bus_bus" depart="424.35" departLane="best" from="-482015497#2" to="741972945"/>
    <trip id="bus119" type="bus_bus" depart="427.94" departLane="best" from="671165803" to="684006412#1"/>
    <trip id="bus120" type="bus_bus" depart="431.54" departLane="best" from="-832745421#6" to="-26824560"/>
    <trip id="bus121" type="bus_bus" depart="435.14" departLane="best" departSpeed="max" from="56008764" to="406017622#1"/>
    <trip id="bus122" type="bus_bus" depart="438.73" departLane="best" from="26611562" to="96000895#1"/>
    <trip id="bus123" type="bus_bus" depart="442.33" departLane="best" from="37768338#0" to="-118794041"/>
    <trip id="bus124" type="bus_bus" depart="445.92" departLane="best" from="392575756" to="747059916"/>
    <trip id="bus125" type="bus_bus" depart="449.52" departLane="best" from="-233525227" to="-22736365#3"/>
    <trip id="bus126" type="bus_bus" depart="453.12" departLane="best" from="-489344451#1" to="22737020#3"/>
    <trip id="bus128" type="bus_bus" depart="460.31" departLane="best" from="339736822#3" to="-446506377#2"/>
    <trip id="bus129" type="bus_bus" depart="463.90" departLane="best" from="174970470#3" to="698053493#0"/>
    <trip id="bus130" type="bus_bus" depart="467.50" departLane="best" from="605051699#4" to="-20437797#1"/>
    <trip id="bus131" type="bus_bus" depart="471.10" departLane="best" from="134889167#0" to="-475020758#2"/>
    <trip id="bus132" type="bus_bus" depart="474.69" departLane="best" from="-118793670#1" to="47463134#2"/>
    <trip id="bus133" type="bus_bus" depart="478.29" departLane="best" departSpeed="max" from="362262996" to="-442773124"/>
    <trip id="bus134" type="bus_bus" depart="481.89" departLane="best" from="442773109#0" to="22736355#2"/>
    <trip id="bus135" type="bus_bus" depart="485.48" departLane="best" departSpeed="max" from="-20437775#2" to="697183346#0"/>
    <trip id="bus136" type="bus_bus" depart="489.08" departLane="best" from="697667210" to="219719294#5"/>
    <trip id="bus137" type="bus_bus" depart="492.67" departLane="best" departSpeed="max" from="56008764" to="22736381#2"/>
    <trip id="bus138" type="bus_bus" depart="496.27" departLane="best" from="-26824603" to="-22736380#1"/>
    <trip id="bus139" type="bus_bus" depart="499.87" departLane="best" from="-647318805" to="697770152"/>
    <trip id="bus140" type="bus_bus" depart="503.46" departLane="best" from="697183355#1" to="-408197311#5"/>
    <trip id="bus141" type="bus_bus" depart="507.06" departLane="best" departSpeed="max" from="-47463290#1" to="-219752764#2"/>
    <trip id="bus142" type="bus_bus" depart="510.65" departLane="best" from="48515891#3" to="697183346#2"/>
    <trip id="bus143" type="bus_bus" depart="514.25" departLane="best" departSpeed="max" from="119870354" to="22766391#1"/>
    <trip id="bus144" type="bus_bus" depart="517.85" departLane="best" from="-339736822#0" to="741703401"/>
    <trip id="bus145" type="bus_bus" depart="521.44" departLane="best" from="618971110" to="832749276"/>
    <trip id="bus146" type="bus_bus" depart="525.04" departLane="best" departSpeed="max" from="55874614" to="686318836"/>
    <trip id="bus147" type="bus_bus" depart="528.64" departLane="best" from="-140997937" to="417610536#0"/>
    <trip id="bus148" type="bus_bus" depart="532.23" departLane="best" from="-720845271" to="741703406"/>
    <trip id="bus149" type="bus_bus" depart="535.83" departLane="best" from="554317503#2" to="67046099"/>
    <trip id="bus150" type="bus_bus" depart="539.42" departLane="best" departSpeed="max" from="51784846" to="-22736358#3"/>
    <trip id="bus151" type="bus_bus" depart="543.02" departLane="best" from="667143869#1" to="66162510#1"/>
    <trip id="bus152" type="bus_bus" depart="546.62" departLane="best" from="15501876" to="-554317503#0"/>
    <trip id="bus153" type="bus_bus" depart="550.21" departLane="best" from="534486156" to="-417206210#0"/>
    <trip id="bus154" type="bus_bus" depart="553.81" departLane="best" from="-140997933" to="-392689407#8"/>
    <trip id="bus155" type="bus_bus" depart="557.40" departLane="best" departSpeed="max" from="807670432" to="-475020758#7"/>
    <trip id="bus156" type="bus_bus" depart="561.00" departLane="best" from="363081449#4" to="-797720341#0"/>
    <trip id="bus157" type="bus_bus" depart="564.60" departLane="best" from="832749275#3" to="20437840#2"/>
    <trip id="bus158" type="bus_bus" depart="568.19" departLane="best" from="745161146" to="-22736365#3"/>
    <trip id="bus159" type="bus_bus" depart="571.79" departLane="best" from="832745415#0" to="-37522154#3"/>
    <trip id="bus160" type="bus_bus" depart="575.39" departLane="best" from="807017157#0" to="-447214434"/>
    <trip id="bus161" type="bus_bus" depart="578.98" departLane="best" from="-22736371" to="131335282#4"/>
    <trip id="bus162" type="bus_bus" depart="582.58" departLane="best" departSpeed="max" from="42724038#0" to="-55874614"/>
    <trip id="bus163" type="bus_bus" depart="586.17" departLane="best" departSpeed="max" from="260325008" to="174970475#2"/>
    <trip id="bus165" type="bus_bus" depart="593.37" departLane="best" from="-475020758#5" to="406513809#0"/>
    <trip id="bus166" type="bus_bus" depart="596.96" departLane="best" from="-115229320#1" to="741201990#0"/>
    <trip id="bus167" type="bus_bus" depart="600.56" departLane="best" from="22736364#5" to="410000810#8"/>
    <trip id="bus168" type="bus_bus" depart="604.15" departLane="best" departSpeed="max" from="442773111" to="376385690#0"/>
    <trip id="bus169" type="bus_bus" depart="607.75" departLane="best" from="-807017157#0" to="-164014457#1"/>
    <trip id="bus170" type="bus_bus" depart="611.35" departLane="best" from="392689403#1" to="-56008760#1"/>
    <trip id="bus171" type="bus_bus" depart="614.94" departLane="best" from="-671113567#2" to="606996744"/>
    <trip id="bus172" type="bus_bus" depart="618.54" departLane="best" from="42474484#1" to="-52502593#1"/>
    <trip id="bus173" type="bus_bus" depart="622.14" departLane="best" from="-667143869#0" to="-832745421#5"/>
    <trip id="bus174" type="bus_bus" depart="625.73" departLane="best" departSpeed="max" from="119870351#0" to="-51784846"/>
    <trip id="bus175" type="bus_bus" depart="629.33" departLane="best" from="-22741117#6" to="115229319"/>
    <trip id="bus176" type="bus_bus" depart="632.92" departLane="best" from="746815351" to="383176690#2"/>
    <trip id="bus178" type="bus_bus" depart="640.12" departLane="best" from="-60844538" to="219719294#9"/>
    <trip id="bus179" type="bus_bus" depart="643.71" departLane="best" from="-115229317#1" to="-482015497#4"/>
    <trip id="bus180" type="bus_bus" depart="647.31" departLane="best" from="140997927#2" to="22736380#0"/>
    <trip id="bus181" type="bus_bus" depart="650.90" departLane="best" from="37768338#1" to="145831277#2"/>
    <trip id="bus182" type="bus_bus" depart="654.50" departLane="best" from="144929478#1" to="-414507700#0"/>
    <trip id="bus183" type="bus_bus" depart="658.10" departLane="best" from="160248909" to="697849441#1"/>
    <trip id="bus184" type="bus_bus" depart="661.69" departLane="best" from="538209283" to="-361585732#0"/>
    <trip id="bus185" type="bus_bus" depart="665.29" departLane="best" from="-219719294#3" to="179116689#8"/>
    <trip id="bus186" type="bus_bus" depart="668.89" departLane="best" from="339736822#1" to="-56008763"/>
    <trip id="bus187" type="bus_bus" depart="672.48" departLane="best" from="55874618#4" to="436119957#1"/>
    <trip id="bus188" type="bus_bus" depart="676.08" departLane="best" from="399859418#1" to="-41656940#2"/>
    <trip id="bus189" type="bus_bus" depart="679.67" departLane="best" from="-408883117" to="-131339230"/>
    <trip id="bus190" type="bus_bus" depart="683.27" departLane="best" from="-450271743" to="15229955"/>
    <trip id="bus191" type="bus_bus" depart="686.87" departLane="best" departSpeed="max" from="131339230" to="243662948#1"/>
    <trip id="bus192" type="bus_bus" depart="690.46" departLane="best" from="-408197310#4" to="399859419#0"/>
    <trip id="bus193" type="bus_bus" depart="694.06" departLane="best" from="383176690#0" to="-118793670#0"/>
    <trip id="bus194" type="bus_bus" depart="697.65" departLane="best" from="-22736370#3" to="117563152"/>
    <trip id="bus195" type="bus_bus" depart="701.25" departLane="best" from="-392689404" to="797720341#2"/>
    <trip id="bus196" type="bus_bus" depart="704.85" departLane="best" from="208632238#4" to="-150260492#0"/>
    <trip id="bus197" type="bus_bus" depart="708.44" departLane="best" departSpeed="max" from="-47463290#1" to="606996749#1"/>
    <trip id="bus198" type="bus_bus" depart="712.04" departLane="best" from="15229946" to="52502593#2"/>
    <trip id="bus199" type="bus_bus" depart="715.64" departLane="best" from="392689407#4" to="96000895#2"/>
    <trip id="bus200" type="bus_bus" depart="719.23" departLane="best" from="22766391#1" to="767622440#3"/>
    <trip id="bus201" type="bus_bus" depart="722.83" departLane="best" from="684607203#1" to="22741121#0"/>
    <trip id="bus202" type="bus_bus" depart="726.42" departLane="best" from="42474484#0" to="174955284#0"/>
    <trip id="bus203" type="bus_bus" depart="730.02" departLane="best" departSpeed="max" from="56008763" to="219719294#9"/>
    <trip id="bus204" type="bus_bus" depart="733.62" departLane="best" from="697183346#6" to="424959220#2"/>
    <trip id="bus205" type="bus_bus" depart="737.21" departLane="best" from="-455371646" to="26611452"/>
    <trip id="bus206" type="bus_bus" depart="740.81" departLane="best" from="47463290#0" to="20437767#0"/>
    <trip id="bus207" type="bus_bus" depart="744.40" departLane="best" from="316905861#0" to="-47463290#0"/>
    <trip id="bus208" type="bus_bus" depart="748.00" departLane="best" from="-20437797#3" to="-482015497#2"/>
    <trip id="bus209" type="bus_bus" depart="751.60" departLane="best" from="-48832578" to="-55874618#1"/>
    <trip id="bus210" type="bus_bus" depart="755.19" departLane="best" from="-436119957#1" to="395173812#1"/>
    <trip id="bus211" type="bus_bus" depart="758.79" departLane="best" from="414507707" to="-160212606#0"/>
    <trip id="bus213" type="bus_bus" depart="765.98" departLane="best" from="131340350#1" to="-408197310#3"/>
    <trip id="bus214" type="bus_bus" depart="769.58" departLane="best" from="60844538" to="44848109#1"/>
    <trip id="bus215" type="bus_bus" depart="773.17" departLane="best" departSpeed="max" from="-97050360#1" to="-118793670#0"/>
    <trip id="bus216" type="bus_bus" depart="776.77" departLane="best" from="-767622440#0" to="442436506#0"/>
    <trip id="bus217" type="bus_bus" depart="780.37" departLane="best" from="606974219" to="770887940#1"/>
    <trip id="bus218" type="bus_bus" depart="783.96" departLane="best" from="134230455#4" to="42724038#1"/>
    <trip id="bus219" type="bus_bus" depart="787.56" departLane="best" from="22736370#1" to="22737020#1"/>
    <trip id="bus220" type="bus_bus" depart="791.16" departLane="best" from="142757141#0" to="-134230455#5"/>
    <trip id="bus221" type="bus_bus" depart="794.75" departLane="best" from="-741142478" to="383176691#2"/>
    <trip id="bus222" type="bus_bus" depart="798.35" departLane="best" departSpeed="max" from="119870351#0" to="-293817953"/>
    <trip id="bus224" type="bus_bus" depart="805.54" departLane="best" from="274423424#2" to="-134230455#0"/>
    <trip id="bus225" type="bus_bus" depart="809.14" departLane="best" from="-140997952#0" to="26611647#0"/>
    <trip id="bus226" type="bus_bus" depart="812.73" departLane="best" from="-233525228#1" to="143311247"/>
    <trip id="bus227" type="bus_bus" depart="816.33" departLane="best" from="-164014448" to="-720845272#2"/>
    <trip id="bus228" type="bus_bus" depart="819.92" departLane="best" from="-41656940#2" to="-56008759#0"/>
    <trip id="bus229" type="bus_bus" depart="823.52" departLane="best" departSpeed="max" from="461622393" to="-720845272#2"/>
    <trip id="bus230" type="bus_bus" depart="827.12" departLane="best" from="442773125#2" to="601666743#2"/>
    <trip id="bus231" type="bus_bus" depart="830.71" departLane="best" from="-134233676#6" to="20442961#1"/>
    <trip id="bus232" type="bus_bus" depart="834.31" departLane="best" from="97236180#0" to="-61935857#0"/>
    <trip id="bus234" type="bus_bus" depart="841.50" departLane="best" from="376385690#2" to="442436506#1"/>
    <trip id="bus235" type="bus_bus" depart="845.10" departLane="best" from="761587161#0" to="-404275706#3"/>
    <trip id="bus236" type="bus_bus" depart="848.69" departLane="best" from="-134889167#0" to="-260325008"/>
    <trip id="bus237" type="bus_bus" depart="852.29" departLane="best" from="-22741117#4" to="37523270#1"/>
    <trip id="bus238" type="bus_bus" depart="855.89" departLane="best" from="410000810#8" to="455371642#1"/>
    <trip id="bus239" type="bus_bus" depart="859.48" departLane="best" from="-380969254" to="22737020#8"/>
    <trip id="bus240" type="bus_bus" depart="863.08" departLane="best" departSpeed="max" from="442773117" to="-22736365#2"/>
    <trip id="bus241" type="bus_bus" depart="866.67" departLane="best" departSpeed="max" from="55874620" to="807017157#3"/>
    <trip id="bus242" type="bus_bus" depart="870.27" departLane="best" from="-22736370#6" to="-131339230"/>
    <trip id="bus243" type="bus_bus" depart="873.87" departLane="best" from="-67048708" to="383176690#2"/>
    <trip id="bus244" type="bus_bus" depart="877.46" departLane="best" from="783248709#1" to="-770887940#0"/>
    <trip id="bus245" type="bus_bus" depart="881.06" departLane="best" from="408197310#2" to="233525265"/>
    <trip id="bus246" type="bus_bus" depart="884.66" departLane="best" from="-22736365#3" to="47463290#1"/>
    <trip id="bus247" type="bus_bus" depart="888.25" departLane="best" departSpeed="max" from="-22736385" to="863336412#4"/>
    <trip id="bus248" type="bus_bus" depart="891.85" departLane="best" from="48832572" to="-61884384"/>
    <trip id="bus249" type="bus_bus" depart="895.44" departLane="best" from="140038552#0" to="-691254185"/>
    <trip id="bus250" type="bus_bus" depart="899.04" departLane="best" from="20437787" to="-606061323#2"/>
    <trip id="bus251" type="bus_bus" depart="902.64" departLane="best" from="606061323#3" to="56008760#1"/>
    <trip id="bus252" type="bus_bus" depart="906.23" departLane="best" from="361585734" to="581669017#4"/>
    <trip id="bus253" type="bus_bus" depart="909.83" departLane="best" from="-48515891#5" to="541365489"/>
    <trip id="bus254" type="bus_bus" depart="913.42" departLane="best" from="22736364#5" to="15501885#0"/>
    <trip id="bus255" type="bus_bus" depart="917.02" departLane="best" from="-48515891#2" to="610270522#0"/>
    <trip id="bus257" type="bus_bus" depart="924.21" departLane="best" from="677368054#0" to="-42724052"/>
    <trip id="bus259" type="bus_bus" depart="931.41" departLane="best" departSpeed="max" from="-97050360#1" to="-134230455#3"/>
    <trip id="bus260" type="bus_bus" depart="935.00" departLane="best" departSpeed="max" from="-741201990#3" to="684607203#0"/>
    <trip id="bus261" type="bus_bus" depart="938.60" departLane="best" from="414507699" to="-475020758#1"/>
    <trip id="bus262" type="bus_bus" depart="942.19" departLane="best" from="-131335281#0" to="767622440#0"/>
    <trip id="bus263" type="bus_bus" depart="945.79" departLane="best" from="-219719294#5" to="414129015"/>
    <trip id="bus264" type="bus_bus" depart="949.39" departLane="best" from="174970470#3" to="442773114"/>
    <trip id="bus265" type="bus_bus" depart="952.98" departLane="best" from="408197310#2" to="26824741"/>
    <trip id="bus266" type="bus_bus" depart="956.58" departLane="best" from="174970475#2" to="48515891#5"/>
    <trip id="bus267" type="bus_bus" depart="960.17" departLane="best" from="-22736355#6" to="-41656939#5"/>
    <trip id="bus268" type="bus_bus" depart="963.77" departLane="best" from="408197310#4" to="-554317503#0"/>
    <trip id="bus269" type="bus_bus" depart="967.37" departLane="best" from="22737020#8" to="15229937#6"/>
    <trip id="bus270" type="bus_bus" depart="970.96" departLane="best" from="22736359#2" to="118793670#0"/>
    <trip id="bus271" type="bus_bus" depart="974.56" departLane="best" from="442773113" to="-56008761"/>
    <trip id="bus272" type="bus_bus" depart="978.16" departLane="best" from="414507702#1" to="-455371646"/>
    <trip id="bus273" type="bus_bus" depart="981.75" departLane="best" from="-47463291" to="-22736370#4"/>
    <trip id="bus274" type="bus_bus" depart="985.35" departLane="best" from="-40665277" to="-22736370#2"/>
    <trip id="bus275" type="bus_bus" depart="988.94" departLane="best" from="22736363" to="446506378"/>
    <trip id="bus276" type="bus_bus" depart="992.54" departLane="best" from="-399859418#3" to="-414507704#0"/>
    <trip id="bus277" type="bus_bus" depart="996.14" departLane="best" from="174955283#8" to="414507704#1"/>
    <trip id="bus278" type="bus_bus" depart="999.73" departLane="best" departSpeed="max" from="832745422#0" to="20437774"/>
    <trip id="bus279" type="bus_bus" depart="1003.33" departLane="best" from="-548881044" to="-219719294#8"/>