<?xml version="1.0" encoding="UTF-8"?>
<!-- generated on 2021-01-28 10:17:09.340498 by $Id$ v1_8_0+0044-4820708f3d
  options: 
-->
<routes xmlns:xsi="http://www.w3.org/2001/XMLSchema-instance" xsi:noNamespaceSchemaLocation="http://sumo.dlr.de/xsd/routes_file.xsd">
    <vType id="ped_pedestrian" vClass="pedestrian"/>
    <person id="ped0" depart="0.00" type="ped_pedestrian">
        <personTrip from="326551910#1" to="-121860444" modes="public"/>
    </person>
    <person id="ped1" depart="0.81" type="ped_pedestrian">
        <personTrip from="-548040154#0" to="-42724053#0" modes="public"/>
    </person>
    <person id="ped2" depart="1.62" type="ped_pedestrian">
        <personTrip from="48240411#0" to="408197311#6" modes="public"/>
    </person>
    <person id="ped3" depart="2.43" type="ped_pedestrian">
        <personTrip from="722225470" to="-20437797#3" modes="public"/>
    </person>
    <person id="ped4" depart="3.24" type="ped_pedestrian">
        <personTrip from="119403142" to="-131002535#0" modes="public"/>
    </person>
    <person id="ped5" depart="4.05" type="ped_pedestrian">
        <personTrip from="-42294196#0" to="174970470#3" modes="public"/>
    </person>
    <person id="ped6" depart="4.86" type="ped_pedestrian">
        <personTrip from="-121860452" to="-399859418#0" modes="public"/>
    </person>
    <person id="ped7" depart="5.67" type="ped_pedestrian">
        <personTrip from="37522154#1" to="22736381#5" modes="public"/>
    </person>
    <person id="ped8" depart="6.48" type="ped_pedestrian">
        <personTrip from="-42474484#1" to="250683475#2" modes="public"/>
    </person>
    <person id="ped9" depart="7.29" type="ped_pedestrian">
        <personTrip from="598002456#1" to="-118644742#2" modes="public"/>
    </person>
    <person id="ped10" depart="8.10" type="ped_pedestrian">
        <personTrip from="598002445#2" to="43675523#0" modes="public"/>
    </person>
    <person id="ped11" depart="8.91" type="ped_pedestrian">
        <personTrip from="-702025195#1" to="-26975358#0" modes="public"/>
    </person>
    <person id="ped12" depart="9.72" type="ped_pedestrian">
        <personTrip from="821251483#1" to="-691254185" modes="public"/>
    </person>
    <person id="ped13" depart="10.53" type="ped_pedestrian">
        <personTrip from="-208425618#2" to="-215654684#1" modes="public"/>
    </person>
    <person id="ped14" depart="11.34" type="ped_pedestrian">
        <personTrip from="66969533#2" to="26974405#0" modes="public"/>
    </person>
    <person id="ped15" depart="12.15" type="ped_pedestrian">
        <personTrip from="598002447" to="47519280#1" modes="public"/>
    </person>
    <person id="ped16" depart="12.96" type="ped_pedestrian">
        <personTrip from="22736360#8" to="899493107" modes="public"/>
    </person>
    <person id="ped17" depart="13.77" type="ped_pedestrian">
        <personTrip from="-832745421#3" to="22737020#9" modes="public"/>
    </person>
    <person id="ped18" depart="14.58" type="ped_pedestrian">
        <personTrip from="622101810#3" to="289508735#3" modes="public"/>
    </person>
    <person id="ped19" depart="15.39" type="ped_pedestrian">
        <personTrip from="684006411#2" to="23440338#4" modes="public"/>
    </person>
    <person id="ped20" depart="16.20" type="ped_pedestrian">
        <personTrip from="443995832#2" to="-142053903#3" modes="public"/>
    </person>
    <person id="ped21" depart="17.01" type="ped_pedestrian">
        <personTrip from="-442773112#0" to="-587860114" modes="public"/>
    </person>
    <person id="ped22" depart="17.82" type="ped_pedestrian">
        <personTrip from="-174970474#1" to="-447214443#0" modes="public"/>
    </person>
    <person id="ped23" depart="18.63" type="ped_pedestrian">
        <personTrip from="-219720843" to="-554040620#3" modes="public"/>
    </person>
    <person id="ped24" depart="19.44" type="ped_pedestrian">
        <personTrip from="317765099#1" to="-771871381" modes="public"/>
    </person>
    <person id="ped25" depart="20.25" type="ped_pedestrian">
        <personTrip from="-783248713#2" to="-408853457#1" modes="public"/>
    </person>
    <person id="ped26" depart="21.06" type="ped_pedestrian">
        <personTrip from="-51750135" to="771871397#0" modes="public"/>
    </person>
    <person id="ped27" depart="21.87" type="ped_pedestrian">
        <personTrip from="374541369" to="26975358#1" modes="public"/>
    </person>
    <person id="ped28" depart="22.68" type="ped_pedestrian">
        <personTrip from="-307785385#6" to="47518877#0" modes="public"/>
    </person>
    <person id="ped29" depart="23.49" type="ped_pedestrian">
        <personTrip from="-289508735#1" to="-832745421#9" modes="public"/>
    </person>
    <person id="ped30" depart="24.30" type="ped_pedestrian">
        <personTrip from="96152249" to="332482917#0" modes="public"/>
    </person>
    <person id="ped31" depart="25.11" type="ped_pedestrian">
        <personTrip from="22741127#1" to="414507704#1" modes="public"/>
    </person>
    <person id="ped32" depart="25.92" type="ped_pedestrian">
        <personTrip from="658561117#2" to="554040620#2" modes="public"/>
    </person>
    <person id="ped33" depart="26.73" type="ped_pedestrian">
        <personTrip from="-442773124" to="-131335760" modes="public"/>
    </person>
    <person id="ped34" depart="27.54" type="ped_pedestrian">
        <personTrip from="-621783201" to="-521771240" modes="public"/>
    </person>
    <person id="ped35" depart="28.35" type="ped_pedestrian">
        <personTrip from="-410000814#2" to="783628556#0" modes="public"/>
    </person>
    <person id="ped36" depart="29.16" type="ped_pedestrian">
        <personTrip from="698053494#1" to="-621783196#0" modes="public"/>
    </person>
    <person id="ped37" depart="29.97" type="ped_pedestrian">
        <personTrip from="380969252" to="-96152233" modes="public"/>
    </person>
    <person id="ped38" depart="30.78" type="ped_pedestrian">
        <personTrip from="758213418#0" to="142052149#1" modes="public"/>
    </person>
    <person id="ped39" depart="31.59" type="ped_pedestrian">
        <personTrip from="-490490034" to="-475020758#0" modes="public"/>
    </person>
    <person id="ped40" depart="32.40" type="ped_pedestrian">
        <personTrip from="22767300" to="-48606898" modes="public"/>
    </person>
    <person id="ped41" depart="33.21" type="ped_pedestrian">
        <personTrip from="24481262#1" to="736878369" modes="public"/>
    </person>
    <person id="ped42" depart="34.02" type="ped_pedestrian">
        <personTrip from="-96152252#1" to="-423114711#1" modes="public"/>
    </person>
    <person id="ped43" depart="34.83" type="ped_pedestrian">
        <personTrip from="97236168" to="19889415#2" modes="public"/>
    </person>
    <person id="ped44" depart="35.64" type="ped_pedestrian">
        <personTrip from="-208425591#1" to="-142054666" modes="public"/>
    </person>
    <person id="ped45" depart="36.45" type="ped_pedestrian">
        <personTrip from="-22736380#1" to="307785385#5" modes="public"/>
    </person>
    <person id="ped46" depart="37.26" type="ped_pedestrian">
        <personTrip from="585760137" to="119403143" modes="public"/>
    </person>
    <person id="ped47" depart="38.07" type="ped_pedestrian">
        <personTrip from="-15229946" to="-860371566#1" modes="public"/>
    </person>
    <person id="ped48" depart="38.88" type="ped_pedestrian">
        <personTrip from="97050366#1" to="219716165" modes="public"/>
    </person>
    <person id="ped49" depart="39.69" type="ped_pedestrian">
        <personTrip from="886247756#3" to="684006411#1" modes="public"/>
    </person>
    <person id="ped50" depart="40.50" type="ped_pedestrian">
        <personTrip from="-119398509" to="46494696#2" modes="public"/>
    </person>
    <person id="ped51" depart="41.31" type="ped_pedestrian">
        <personTrip from="414494030" to="22736364#0" modes="public"/>
    </person>
    <person id="ped52" depart="42.12" type="ped_pedestrian">
        <personTrip from="-51750135" to="334662053" modes="public"/>
    </person>
    <person id="ped53" depart="42.93" type="ped_pedestrian">
        <personTrip from="-22736382#1" to="121860441" modes="public"/>
    </person>
    <person id="ped54" depart="43.75" type="ped_pedestrian">
        <personTrip from="140997942" to="807670435#1" modes="public"/>
    </person>
    <person id="ped55" depart="44.56" type="ped_pedestrian">
        <personTrip from="698053493#0" to="-489344451#0" modes="public"/>
    </person>
    <person id="ped56" depart="45.37" type="ped_pedestrian">
        <personTrip from="164014469#0" to="-334242033" modes="public"/>
    </person>
    <person id="ped57" depart="46.18" type="ped_pedestrian">
        <personTrip from="758213414#0" to="697183355#7" modes="public"/>
    </person>
    <person id="ped58" depart="46.99" type="ped_pedestrian">
        <personTrip from="-598002446#2" to="326551906#4" modes="public"/>
    </person>
    <person id="ped59" depart="47.80" type="ped_pedestrian">
        <personTrip from="26975358#1" to="-26974880#3" modes="public"/>
    </person>
    <person id="ped60" depart="48.61" type="ped_pedestrian">
        <personTrip from="52502593#1" to="22736366#2" modes="public"/>
    </person>
    <person id="ped61" depart="49.42" type="ped_pedestrian">
        <personTrip from="55874606#2" to="219719294#3" modes="public"/>
    </person>
    <person id="ped62" depart="50.23" type="ped_pedestrian">
        <personTrip from="-112136924" to="-66969565#1" modes="public"/>
    </person>
    <person id="ped63" depart="51.04" type="ped_pedestrian">
        <personTrip from="-119859564#0" to="768117041" modes="public"/>
    </person>
    <person id="ped64" depart="51.85" type="ped_pedestrian">
        <personTrip from="701134923" to="624897077" modes="public"/>
    </person>
    <person id="ped65" depart="52.66" type="ped_pedestrian">
        <personTrip from="-606061323#4" to="-144929478#0" modes="public"/>
    </person>
    <person id="ped66" depart="53.47" type="ped_pedestrian">
        <personTrip from="698984502" to="797841919#2" modes="public"/>
    </person>
    <person id="ped67" depart="54.28" type="ped_pedestrian">
        <personTrip from="-20437785" to="15389819#1" modes="public"/>
    </person>
    <person id="ped68" depart="55.09" type="ped_pedestrian">
        <personTrip from="-160212616#0" to="52502295" modes="public"/>
    </person>
    <person id="ped69" depart="55.90" type="ped_pedestrian">
        <personTrip from="529401695#0" to="-23430405#2" modes="public"/>
    </person>
    <person id="ped70" depart="56.71" type="ped_pedestrian">
        <personTrip from="143751845" to="22737007#1" modes="public"/>
    </person>
    <person id="ped71" depart="57.52" type="ped_pedestrian">
        <personTrip from="-50648723#0" to="697770118#4" modes="public"/>
    </person>
    <person id="ped72" depart="58.33" type="ped_pedestrian">
        <personTrip from="119403148#4" to="-414129016#1" modes="public"/>
    </person>
    <person id="ped73" depart="59.14" type="ped_pedestrian">
        <personTrip from="22736366#2" to="47519280#4" modes="public"/>
    </person>
    <person id="ped74" depart="59.95" type="ped_pedestrian">
        <personTrip from="-404277029#0" to="-61935857#5" modes="public"/>
    </person>
    <person id="ped75" depart="60.76" type="ped_pedestrian">
        <personTrip from="97050360#1" to="37522154#1" modes="public"/>
    </person>
    <person id="ped76" depart="61.57" type="ped_pedestrian">
        <personTrip from="121860456#1" to="20442961#1" modes="public"/>
    </person>
    <person id="ped77" depart="62.38" type="ped_pedestrian">
        <personTrip from="-233525265" to="-436119957#2" modes="public"/>
    </person>
    <person id="ped78" depart="63.19" type="ped_pedestrian">
        <personTrip from="-698053493#0" to="250683471#1" modes="public"/>
    </person>
    <person id="ped79" depart="64.00" type="ped_pedestrian">
        <personTrip from="-442773132" to="-42474484#0" modes="public"/>
    </person>
    <person id="ped80" depart="64.81" type="ped_pedestrian">
        <personTrip from="-161287414#0" to="308140162" modes="public"/>
    </person>
    <person id="ped81" depart="65.62" type="ped_pedestrian">
        <personTrip from="-442773124" to="743752494#1" modes="public"/>
    </person>
    <person id="ped82" depart="66.43" type="ped_pedestrian">
        <personTrip from="673417487" to="-160248909" modes="public"/>
    </person>
    <person id="ped83" depart="67.24" type="ped_pedestrian">
        <personTrip from="-46410919#2" to="406017622#4" modes="public"/>
    </person>
    <person id="ped84" depart="68.05" type="ped_pedestrian">
        <personTrip from="-414507706" to="-23440338#1" modes="public"/>
    </person>
    <person id="ped85" depart="68.86" type="ped_pedestrian">
        <personTrip from="771871392" to="23430375#2" modes="public"/>
    </person>
    <person id="ped86" depart="69.67" type="ped_pedestrian">
        <personTrip from="142757385" to="562754424#4" modes="public"/>
    </person>
    <person id="ped87" depart="70.48" type="ped_pedestrian">
        <personTrip from="598002449" to="-383176690#0" modes="public"/>
    </person>
    <person id="ped88" depart="71.29" type="ped_pedestrian">
        <personTrip from="-215654684#3" to="119870351#2" modes="public"/>
    </person>
    <person id="ped89" depart="72.10" type="ped_pedestrian">
        <personTrip from="119403148#6" to="142059673#2" modes="public"/>
    </person>
    <person id="ped90" depart="72.91" type="ped_pedestrian">
        <personTrip from="47518877#0" to="40665485#3" modes="public"/>
    </person>
    <person id="ped91" depart="73.72" type="ped_pedestrian">
        <personTrip from="96152229#1" to="-219716162" modes="public"/>
    </person>
    <person id="ped92" depart="74.53" type="ped_pedestrian">
        <personTrip from="-97050352#0" to="-701134924#0" modes="public"/>
    </person>
    <person id="ped93" depart="75.34" type="ped_pedestrian">
        <personTrip from="684006411#2" to="-475039276#3" modes="public"/>
    </person>
    <person id="ped94" depart="76.15" type="ped_pedestrian">
        <personTrip from="-380969254" to="134233679#0" modes="public"/>
    </person>
    <person id="ped95" depart="76.96" type="ped_pedestrian">
        <personTrip from="119403141#0" to="-554040620#6" modes="public"/>
    </person>
    <person id="ped96" depart="77.77" type="ped_pedestrian">
        <personTrip from="-47519280#8" to="767487777" modes="public"/>
    </person>
    <person id="ped97" depart="78.58" type="ped_pedestrian">
        <personTrip from="131335760" to="684006411#12" modes="public"/>
    </person>
    <person id="ped98" depart="79.39" type="ped_pedestrian">
        <personTrip from="22737020#0" to="-142059678#0" modes="public"/>
    </person>
    <person id="ped99" depart="80.20" type="ped_pedestrian">
        <personTrip from="97236180#0" to="626462627" modes="public"/>
    </person>
    <person id="ped100" depart="81.01" type="ped_pedestrian">
        <personTrip from="867981796" to="767622440#1" modes="public"/>
    </person>
    <person id="ped101" depart="81.82" type="ped_pedestrian">
        <personTrip from="66969711" to="-293817957#3" modes="public"/>
    </person>
    <person id="ped102" depart="82.63" type="ped_pedestrian">
        <personTrip from="15389819#0" to="-414507704#1" modes="public"/>
    </person>
    <person id="ped103" depart="83.44" type="ped_pedestrian">
        <personTrip from="-96152260#2" to="-145841323" modes="public"/>
    </person>
    <person id="ped104" depart="84.25" type="ped_pedestrian">
        <personTrip from="-832745421#6" to="96152229#3" modes="public"/>
    </person>
    <person id="ped105" depart="85.06" type="ped_pedestrian">
        <personTrip from="-50648723#1" to="56134329" modes="public"/>
    </person>
    <person id="ped106" depart="85.87" type="ped_pedestrian">
        <personTrip from="140999316#1" to="119403148#2" modes="public"/>
    </person>
    <person id="ped107" depart="86.68" type="ped_pedestrian">
        <personTrip from="821251483#1" to="97050361" modes="public"/>
    </person>
    <person id="ped108" depart="87.49" type="ped_pedestrian">
        <personTrip from="22741121#1" to="46494690#3" modes="public"/>
    </person>
    <person id="ped109" depart="88.30" type="ped_pedestrian">
        <personTrip from="-26975212#4" to="-598002444#0" modes="public"/>
    </person>
    <person id="ped110" depart="89.11" type="ped_pedestrian">
        <personTrip from="867981794#1" to="238046163#0" modes="public"/>
    </person>
    <person id="ped111" depart="89.92" type="ped_pedestrian">
        <personTrip from="22736374#1" to="48561044#1" modes="public"/>
    </person>
    <person id="ped112" depart="90.73" type="ped_pedestrian">
        <personTrip from="-143377537" to="24481257" modes="public"/>
    </person>
    <person id="ped113" depart="91.54" type="ped_pedestrian">
        <personTrip from="174955283#2" to="671113562#1" modes="public"/>
    </person>
    <person id="ped114" depart="92.35" type="ped_pedestrian">
        <personTrip from="-27108334#5" to="832745422#0" modes="public"/>
    </person>
    <person id="ped115" depart="93.16" type="ped_pedestrian">
        <personTrip from="-174970475#0" to="-37520996" modes="public"/>
    </person>
    <person id="ped116" depart="93.97" type="ped_pedestrian">
        <personTrip from="263684087#0" to="408197310#3" modes="public"/>
    </person>
    <person id="ped117" depart="94.78" type="ped_pedestrian">
        <personTrip from="-452076891#0" to="-233525227" modes="public"/>
    </person>
    <person id="ped118" depart="95.59" type="ped_pedestrian">
        <personTrip from="720966385#0" to="-47463290#0" modes="public"/>
    </person>
    <person id="ped119" depart="96.40" type="ped_pedestrian">
        <personTrip from="262879714" to="289508738" modes="public"/>
    </person>
    <person id="ped120" depart="97.21" type="ped_pedestrian">
        <personTrip from="119372738" to="24481255#1" modes="public"/>
    </person>
    <person id="ped121" depart="98.02" type="ped_pedestrian">
        <personTrip from="208425616" to="771871391#1" modes="public"/>
    </person>
    <person id="ped122" depart="98.83" type="ped_pedestrian">
        <personTrip from="-40665485#0" to="46410919#3" modes="public"/>
    </person>
    <person id="ped123" depart="99.64" type="ped_pedestrian">
        <personTrip from="-46410919#6" to="-96152233" modes="public"/>
    </person>
    <person id="ped124" depart="100.45" type="ped_pedestrian">
        <personTrip from="40650967#1" to="-598002455" modes="public"/>
    </person>
    <person id="ped125" depart="101.26" type="ped_pedestrian">
        <personTrip from="-624897075" to="48606899" modes="public"/>
    </person>
    <person id="ped126" depart="102.07" type="ped_pedestrian">
        <personTrip from="-163623504#0" to="142052143#3" modes="public"/>
    </person>
    <person id="ped127" depart="102.88" type="ped_pedestrian">
        <personTrip from="97236173" to="97050366#1" modes="public"/>
    </person>
    <person id="ped128" depart="103.69" type="ped_pedestrian">
        <personTrip from="-164014447" to="-414507702#1" modes="public"/>
    </person>
    <person id="ped129" depart="104.50" type="ped_pedestrian">
        <personTrip from="-50648723#1" to="771871387#0" modes="public"/>
    </person>
    <person id="ped130" depart="105.31" type="ped_pedestrian">
        <personTrip from="702025195#1" to="701943514" modes="public"/>
    </person>
    <person id="ped131" depart="106.12" type="ped_pedestrian">
        <personTrip from="-783248710#1" to="-27108334#6" modes="public"/>
    </person>
    <person id="ped132" depart="106.93" type="ped_pedestrian">
        <personTrip from="625689405#1" to="443947095#0" modes="public"/>
    </person>
    <person id="ped133" depart="107.74" type="ped_pedestrian">
        <personTrip from="27108334#9" to="96152238#1" modes="public"/>
    </person>
    <person id="ped134" depart="108.55" type="ped_pedestrian">
        <personTrip from="37768335#1" to="-118741686#1" modes="public"/>
    </person>
    <person id="ped135" depart="109.36" type="ped_pedestrian">
        <personTrip from="601666743#1" to="-598002452" modes="public"/>
    </person>
    <person id="ped136" depart="110.17" type="ped_pedestrian">
        <personTrip from="392689407#6" to="782693446#2" modes="public"/>
    </person>
    <person id="ped137" depart="110.98" type="ped_pedestrian">
        <personTrip from="-240411173#1" to="-22741117#6" modes="public"/>
    </person>
    <person id="ped138" depart="111.79" type="ped_pedestrian">
        <personTrip from="-22736369" to="22741115#0" modes="public"/>
    </person>
    <person id="ped139" depart="112.60" type="ped_pedestrian">
        <personTrip from="-533260479#1" to="26974405#5" modes="public"/>
    </person>
    <person id="ped140" depart="113.41" type="ped_pedestrian">
        <personTrip from="46494689" to="-40650967#1" modes="public"/>
    </person>
    <person id="ped141" depart="114.22" type="ped_pedestrian">
        <personTrip from="308140167#7" to="-490482039#1" modes="public"/>
    </person>
    <person id="ped142" depart="115.03" type="ped_pedestrian">
        <personTrip from="158691269#0" to="743752494#1" modes="public"/>
    </person>
    <person id="ped143" depart="115.84" type="ped_pedestrian">
        <personTrip from="667143869#2" to="-208425618#0" modes="public"/>
    </person>
    <person id="ped144" depart="116.65" type="ped_pedestrian">
        <personTrip from="119403148#6" to="-55158100#5" modes="public"/>
    </person>
    <person id="ped145" depart="117.46" type="ped_pedestrian">
        <personTrip from="-115229322" to="538209283" modes="public"/>
    </person>
    <person id="ped146" depart="118.27" type="ped_pedestrian">
        <personTrip from="321058833#1" to="-48605743#0" modes="public"/>
    </person>
    <person id="ped147" depart="119.08" type="ped_pedestrian">
        <personTrip from="482991722#4" to="22737020#8" modes="public"/>
    </person>
    <person id="ped148" depart="119.89" type="ped_pedestrian">
        <personTrip from="119858092#1" to="-119372735#0" modes="public"/>
    </person>
    <person id="ped149" depart="120.70" type="ped_pedestrian">
        <personTrip from="-164014469#0" to="715073572#0" modes="public"/>
    </person>
    <person id="ped150" depart="121.51" type="ped_pedestrian">
        <personTrip from="742634839" to="22736382#0" modes="public"/>
    </person>
    <person id="ped151" depart="122.32" type="ped_pedestrian">
        <personTrip from="625699017#3" to="24481192#0" modes="public"/>
    </person>
    <person id="ped152" depart="123.13" type="ped_pedestrian">
        <personTrip from="-26974320#1" to="-23430375#1" modes="public"/>
    </person>
    <person id="ped153" depart="123.94" type="ped_pedestrian">
        <personTrip from="-606292219#1" to="739839110" modes="public"/>
    </person>
    <person id="ped154" depart="124.75" type="ped_pedestrian">
        <personTrip from="591263039#1" to="677368054#1" modes="public"/>
    </person>
    <person id="ped155" depart="125.56" type="ped_pedestrian">
        <personTrip from="739839109" to="-40951919" modes="public"/>
    </person>
    <person id="ped156" depart="126.37" type="ped_pedestrian">
        <personTrip from="-47519280#7" to="-22736355#4" modes="public"/>
    </person>
    <person id="ped157" depart="127.18" type="ped_pedestrian">
        <personTrip from="55874614" to="715087198#1" modes="public"/>
    </person>
    <person id="ped158" depart="127.99" type="ped_pedestrian">
        <personTrip from="112136924" to="293817957#0" modes="public"/>
    </person>
    <person id="ped159" depart="128.80" type="ped_pedestrian">
        <personTrip from="-26975212#3" to="768117043#2" modes="public"/>
    </person>
    <person id="ped160" depart="129.61" type="ped_pedestrian">
        <personTrip from="685010986#1" to="96144317#1" modes="public"/>
    </person>
    <person id="ped161" depart="130.43" type="ped_pedestrian">
        <personTrip from="598002462" to="715073562#0" modes="public"/>
    </person>
    <person id="ped162" depart="131.24" type="ped_pedestrian">
        <personTrip from="-121860443" to="48240411#0" modes="public"/>
    </person>
    <person id="ped163" depart="132.05" type="ped_pedestrian">
        <personTrip from="-684006411#11" to="768119008" modes="public"/>
    </person>
    <person id="ped164" depart="132.86" type="ped_pedestrian">
        <personTrip from="597837605" to="684607203#1" modes="public"/>
    </person>
    <person id="ped165" depart="133.67" type="ped_pedestrian">
        <personTrip from="598002462" to="-51750135" modes="public"/>
    </person>
    <person id="ped166" depart="134.48" type="ped_pedestrian">
        <personTrip from="576879750" to="-22736370#6" modes="public"/>
    </person>
    <person id="ped167" depart="135.29" type="ped_pedestrian">
        <personTrip from="697770118#3" to="673412899#0" modes="public"/>
    </person>
    <person id="ped168" depart="136.10" type="ped_pedestrian">
        <personTrip from="-42724037" to="601666736" modes="public"/>
    </person>
    <person id="ped169" depart="136.91" type="ped_pedestrian">
        <personTrip from="142053895#1" to="-601666730#0" modes="public"/>
    </person>
    <person id="ped170" depart="137.72" type="ped_pedestrian">
        <personTrip from="591263038#0" to="-442773111" modes="public"/>
    </person>
    <person id="ped171" depart="138.53" type="ped_pedestrian">
        <personTrip from="-121860433" to="-384196606#3" modes="public"/>
    </person>
    <person id="ped172" depart="139.34" type="ped_pedestrian">
        <personTrip from="-671113565#0" to="685010986#0" modes="public"/>
    </person>
    <person id="ped173" depart="140.15" type="ped_pedestrian">
        <personTrip from="863336412#1" to="-554317503#1" modes="public"/>
    </person>
    <person id="ped174" depart="140.96" type="ped_pedestrian">
        <personTrip from="337850491" to="-96152255#0" modes="public"/>
    </person>
    <person id="ped175" depart="141.77" type="ped_pedestrian">
        <personTrip from="96152206#0" to="22736360#8" modes="public"/>
    </person>
    <person id="ped176" depart="142.58" type="ped_pedestrian">
        <personTrip from="782693446#3" to="-22741117#6" modes="public"/>
    </person>
    <person id="ped177" depart="143.39" type="ped_pedestrian">
        <personTrip from="884639569#2" to="-334242033" modes="public"/>
    </person>
    <person id="ped178" depart="144.20" type="ped_pedestrian">
        <personTrip from="832749277#0" to="-510435199#0" modes="public"/>
    </person>
    <person id="ped179" depart="145.01" type="ped_pedestrian">
        <personTrip from="-22736371" to="121860440" modes="public"/>
    </person>
    <person id="ped180" depart="145.82" type="ped_pedestrian">
        <personTrip from="475039276#1" to="-621783193" modes="public"/>
    </person>
    <person id="ped181" depart="146.63" type="ped_pedestrian">
        <personTrip from="26974880#3" to="20437772" modes="public"/>
    </person>
    <person id="ped182" depart="147.44" type="ped_pedestrian">
        <personTrip from="-899493108" to="23440338#0" modes="public"/>
    </person>
    <person id="ped183" depart="148.25" type="ped_pedestrian">
        <personTrip from="-48240416#1" to="44848109#0" modes="public"/>
    </person>
    <person id="ped184" depart="149.06" type="ped_pedestrian">
        <personTrip from="-112136938" to="767530654#1" modes="public"/>
    </person>
    <person id="ped185" depart="149.87" type="ped_pedestrian">
        <personTrip from="22736364#9" to="46494694#2" modes="public"/>
    </person>
    <person id="ped186" depart="150.68" type="ped_pedestrian">
        <personTrip from="482991722#7" to="40647333#0" modes="public"/>
    </person>
    <person id="ped187" depart="151.49" type="ped_pedestrian">
        <personTrip from="-768119008" to="-160212616#4" modes="public"/>
    </person>
    <person id="ped188" depart="152.30" type="ped_pedestrian">
        <personTrip from="392689408#1" to="-673347937#1" modes="public"/>
    </person>
    <person id="ped189" depart="153.11" type="ped_pedestrian">
        <personTrip from="-621783194#0" to="66969534" modes="public"/>
    </person>
    <person id="ped190" depart="153.92" type="ped_pedestrian">
        <personTrip from="46494695#1" to="-598002461" modes="public"/>
    </person>
    <person id="ped191" depart="154.73" type="ped_pedestrian">
        <personTrip from="-60844541#1" to="112136938" modes="public"/>
    </person>
    <person id="ped192" depart="155.54" type="ped_pedestrian">
        <personTrip from="-97050351" to="-598002439" modes="public"/>
    </person>
    <person id="ped193" depart="156.35" type="ped_pedestrian">
        <personTrip from="-23430375#0" to="119398512" modes="public"/>
    </person>
    <person id="ped194" depart="157.16" type="ped_pedestrian">
        <personTrip from="782860080" to="408197312" modes="public"/>
    </person>
    <person id="ped195" depart="157.97" type="ped_pedestrian">
        <personTrip from="742248996#0" to="27109054" modes="public"/>
    </person>
    <person id="ped196" depart="158.78" type="ped_pedestrian">
        <personTrip from="-601666698#1" to="22736997#0" modes="public"/>
    </person>
    <person id="ped197" depart="159.59" type="ped_pedestrian">
        <personTrip from="-112136922" to="-576879750" modes="public"/>
    </person>
    <person id="ped198" depart="160.40" type="ped_pedestrian">
        <personTrip from="119859565#0" to="241987248#0" modes="public"/>
    </person>
    <person id="ped199" depart="161.21" type="ped_pedestrian">
        <personTrip from="37768336#4" to="142054671#1" modes="public"/>
    </person>
    <person id="ped200" depart="162.02" type="ped_pedestrian">
        <personTrip from="131335282#0" to="-414507704#1" modes="public"/>