<?xml version="1.0" encoding="UTF-8"?>

<!-- generated on 01/26/21 17:28:11 by Eclipse SUMO duarouter Version 1.8.0
<configuration xmlns:xsi="http://www.w3.org/2001/XMLSchema-instance" xsi:noNamespaceSchemaLocation="http://sumo.dlr.de/xsd/duarouterConfiguration.xsd">

    <input>
        <net-file value="osm.net.xml"/>
        <route-files value="osm.passenger.trips.xml"/>
    </input>

    <output>
        <output-file value="osm.passenger.trips.xml.tmp"/>
        <write-trips value="true"/>
    </output>

    <time>
        <begin value="0"/>
        <end value="3600"/>
    </time>

    <report>
        <no-warnings value="true"/>
        <ignore-errors value="true"/>
        <no-step-log value="true"/>
    </report>

</configuration>
-->

<routes xmlns:xsi="http://www.w3.org/2001/XMLSchema-instance" xsi:noNamespaceSchemaLocation="http://sumo.dlr.de/xsd/routes_file.xsd">
    <vType id="veh_passenger" vClass="passenger"/>
    <trip id="veh1" type="veh_passenger" depart="2.97" departLane="best" from="42294992#1" to="23795593"/>
    <trip id="veh2" type="veh_passenger" depart="5.94" departLane="best" departSpeed="max" from="606974222" to="-174970475#0"/>
    <trip id="veh3" type="veh_passenger" depart="8.90" departLane="best" from="134230455#0" to="-143311245#2"/>
    <trip id="veh4" type="veh_passenger" depart="11.87" departLane="best" from="-392689407#3" to="15229957#1"/>
    <trip id="veh5" type="veh_passenger" depart="14.84" departLane="best" departSpeed="max" from="-142757141#1" to="-37522069"/>
    <trip id="veh7" type="veh_passenger" depart="20.78" departLane="best" from="-392689407#6" to="20441576#1"/>
    <trip id="veh8" type="veh_passenger" depart="23.75" departLane="best" from="520495295#1" to="-119617681"/>
    <trip id="veh9" type="veh_passenger" depart="26.71" departLane="best" from="50648722#1" to="327148827"/>
    <trip id="veh10" type="veh_passenger" depart="29.68" departLane="best" from="-606061323#4" to="-23791684#4"/>
    <trip id="veh11" type="veh_passenger" depart="32.65" departLane="best" from="697848280" to="-55874620"/>
    <trip id="veh12" type="veh_passenger" depart="35.62" departLane="best" from="-184279494#0" to="-19881637#1"/>
    <trip id="veh13" type="veh_passenger" depart="38.59" departLane="best" departSpeed="max" from="55874617" to="22737005#1"/>
    <trip id="veh14" type="veh_passenger" depart="41.56" departLane="best" from="174970475#3" to="745481637#1"/>
    <trip id="veh15" type="veh_passenger" depart="44.52" departLane="best" from="-720845272#0" to="180964039#3"/>
    <trip id="veh16" type="veh_passenger" depart="47.49" departLane="best" from="544768661#2" to="22766391#3"/>
    <trip id="veh17" type="veh_passenger" depart="50.46" departLane="best" from="383176690#3" to="-144929478#0"/>
    <trip id="veh18" type="veh_passenger" depart="53.43" departLane="best" from="-406017624#1" to="-50648713#6"/>
    <trip id="veh19" type="veh_passenger" depart="56.40" departLane="best" from="-19926892#0" to="-47519280#5"/>
    <trip id="veh20" type="veh_passenger" depart="59.36" departLane="best" from="-69344068#1" to="-383176691#3"/>
    <trip id="veh21" type="veh_passenger" depart="62.33" departLane="best" from="-447214443#0" to="696040927#0"/>
    <trip id="veh22" type="veh_passenger" depart="65.30" departLane="best" from="23795596" to="22737020#1"/>
    <trip id="veh24" type="veh_passenger" depart="71.24" departLane="best" from="-23791993#2" to="-684006411#3"/>
    <trip id="veh25" type="veh_passenger" depart="74.21" departLane="best" from="770887940#0" to="233525222"/>
    <trip id="veh26" type="veh_passenger" depart="77.17" departLane="best" from="20437797#4" to="263684088"/>
    <trip id="veh27" type="veh_passenger" depart="80.14" departLane="best" from="55874613" to="42474484#2"/>
    <trip id="veh28" type="veh_passenger" depart="83.11" departLane="best" from="-408197311#3" to="-14464609#0"/>
    <trip id="veh29" type="veh_passenger" depart="86.08" departLane="best" departSpeed="max" from="-547101277" to="-44848116#1"/>
    <trip id="veh30" type="veh_passenger" depart="89.05" departLane="best" from="-383176690#0" to="697183355#0"/>
    <trip id="veh31" type="veh_passenger" depart="92.01" departLane="best" from="581669015#1" to="-53644779"/>
    <trip id="veh33" type="veh_passenger" depart="97.95" departLane="best" from="67411738" to="142758621#1"/>
    <trip id="veh34" type="veh_passenger" depart="100.92" departLane="best" from="-447214434" to="-42474489#0"/>
    <trip id="veh35" type="veh_passenger" depart="103.89" departLane="best" departSpeed="max" from="20441568#0" to="-447214434"/>
    <trip id="veh37" type="veh_passenger" depart="109.82" departLane="best" departSpeed="max" from="-97050360#1" to="-399859419#0"/>
    <trip id="veh38" type="veh_passenger" depart="112.79" departLane="best" from="97050361" to="15229980#5"/>
    <trip id="veh39" type="veh_passenger" depart="115.76" departLane="best" from="-180964039#5" to="-144929598"/>
    <trip id="veh41" type="veh_passenger" depart="121.70" departLane="best" from="50637616#5" to="115229331"/>
    <trip id="veh42" type="veh_passenger" depart="124.67" departLane="best" from="-163585086#1" to="-684006411#8"/>
    <trip id="veh43" type="veh_passenger" depart="127.63" departLane="best" from="90075240" to="164014453#0"/>
    <trip id="veh44" type="veh_passenger" depart="130.60" departLane="best" departSpeed="max" from="717926947#0" to="55874613"/>
    <trip id="veh45" type="veh_passenger" depart="133.57" departLane="best" from="-134230455#0" to="370956704#4"/>
    <trip id="veh46" type="veh_passenger" depart="136.54" departLane="best" from="369007476#1" to="174955283#6"/>
    <trip id="veh47" type="veh_passenger" depart="139.51" departLane="best" from="-447214443#0" to="233525222"/>
    <trip id="veh48" type="veh_passenger" depart="142.47" departLane="best" from="-20441550#1" to="131339233"/>
    <trip id="veh49" type="veh_passenger" depart="145.44" departLane="best" from="14464617" to="697712600#1"/>
    <trip id="veh50" type="veh_passenger" depart="148.41" departLane="best" from="581669014#0" to="-447214435"/>
    <trip id="veh51" type="veh_passenger" depart="151.38" departLane="best" from="15389819#0" to="-297105558#3"/>
    <trip id="veh52" type="veh_passenger" depart="154.35" departLane="best" from="67144889#1" to="565300731#3"/>
    <trip id="veh53" type="veh_passenger" depart="157.32" departLane="best" from="-520495295#2" to="233525222"/>
    <trip id="veh54" type="veh_passenger" depart="160.28" departLane="best" from="233525212#3" to="-23791683#7"/>
    <trip id="veh55" type="veh_passenger" depart="163.25" departLane="best" departSpeed="max" from="442773117" to="174955284#2"/>
    <trip id="veh56" type="veh_passenger" depart="166.22" departLane="best" from="47463134#2" to="164014455#1"/>
    <trip id="veh57" type="veh_passenger" depart="169.19" departLane="best" from="-115229319" to="-55874609#1"/>
    <trip id="veh58" type="veh_passenger" depart="172.16" departLane="best" from="-140038552#0" to="684006412#0"/>
    <trip id="veh59" type="veh_passenger" depart="175.12" departLane="best" from="581669017#2" to="520495295#4"/>
    <trip id="veh60" type="veh_passenger" depart="178.09" departLane="best" from="-529399885#1" to="-153002660#0"/>
    <trip id="veh61" type="veh_passenger" depart="181.06" departLane="best" from="-174970474#0" to="148634908#4"/>
    <trip id="veh62" type="veh_passenger" depart="184.03" departLane="best" from="-164014451#0" to="41656939#0"/>
    <trip id="veh63" type="veh_passenger" depart="187.00" departLane="best" from="446506377#1" to="-233525211#1"/>
    <trip id="veh64" type="veh_passenger" depart="189.97" departLane="best" from="15093785#1" to="180964039#1"/>
    <trip id="veh65" type="veh_passenger" depart="192.93" departLane="best" from="-447214435" to="565300731#9"/>
    <trip id="veh66" type="veh_passenger" depart="195.90" departLane="best" from="134230455#3" to="-383283745"/>
    <trip id="veh67" type="veh_passenger" depart="198.87" departLane="best" from="180964039#2" to="37768338#1"/>
    <trip id="veh68" type="veh_passenger" depart="201.84" departLane="best" from="-370956704#5" to="-533257468#2"/>
    <trip id="veh69" type="veh_passenger" depart="204.81" departLane="best" from="83370318" to="233525234#2"/>
    <trip id="veh71" type="veh_passenger" depart="210.74" departLane="best" from="-22764741#1" to="-408197311#3"/>
    <trip id="veh72" type="veh_passenger" depart="213.71" departLane="best" departSpeed="max" from="-601666743#2" to="20441576#1"/>
    <trip id="veh73" type="veh_passenger" depart="216.68" departLane="best" from="-408197311#6" to="-404275706#0"/>
    <trip id="veh74" type="veh_passenger" depart="219.65" departLane="best" from="-164014454" to="233525212#2"/>
    <trip id="veh75" type="veh_passenger" depart="222.62" departLane="best" from="-408197311#1" to="67096966#3"/>
    <trip id="veh76" type="veh_passenger" depart="225.58" departLane="best" departSpeed="max" from="56008759#0" to="-164014453#0"/>
    <trip id="veh77" type="veh_passenger" depart="228.55" departLane="best" from="-417206210#2" to="23791993#0"/>
    <trip id="veh78" type="veh_passenger" depart="231.52" departLane="best" from="-383176691#3" to="-233525219"/>
    <trip id="veh79" type="veh_passenger" depart="234.49" departLane="best" departSpeed="max" from="69706093" to="19926892#0"/>
    <trip id="veh80" type="veh_passenger" depart="237.46" departLane="best" from="148634908#6" to="442436506#0"/>
    <trip id="veh81" type="veh_passenger" depart="240.43" departLane="best" from="50648723#0" to="-370956704#4"/>
    <trip id="veh82" type="veh_passenger" depart="243.39" departLane="best" from="-19889424#0" to="131335282#0"/>
    <trip id="veh83" type="veh_passenger" depart="246.36" departLane="best" from="134230455#3" to="14464613"/>
    <trip id="veh84" type="veh_passenger" depart="249.33" departLane="best" departSpeed="max" from="41590952#0" to="23791995#1"/>
    <trip id="veh86" type="veh_passenger" depart="255.27" departLane="best" departSpeed="max" from="115229317#0" to="-55874621"/>
    <trip id="veh87" type="veh_passenger" depart="258.23" departLane="best" departSpeed="max" from="56008759#0" to="-42474489#1"/>
    <trip id="veh88" type="veh_passenger" depart="261.20" departLane="best" departSpeed="max" from="-358698846" to="140038552#0"/>
    <trip id="veh89" type="veh_passenger" depart="264.17" departLane="best" from="134230455#0" to="-47519280#6"/>
    <trip id="veh90" type="veh_passenger" depart="267.14" departLane="best" from="-42474484#3" to="684006411#10"/>
    <trip id="veh91" type="veh_passenger" depart="270.11" departLane="best" from="142757383#0" to="55874615#0"/>
    <trip id="veh92" type="veh_passenger" depart="273.08" departLane="best" from="97236176" to="52502593#1"/>
    <trip id="veh93" type="veh_passenger" depart="276.04" departLane="best" from="715087202#1" to="684006411#5"/>
    <trip id="veh95" type="veh_passenger" depart="281.98" departLane="best" from="15229950#1" to="-392689407#3"/>
    <trip id="veh96" type="veh_passenger" depart="284.95" departLane="best" departSpeed="max" from="115229317#0" to="-153002660#2"/>
    <trip id="veh97" type="veh_passenger" depart="287.92" departLane="best" from="-720845272#1" to="832749277"/>
    <trip id="veh98" type="veh_passenger" depart="290.89" departLane="best" from="-447214435" to="442436492#1"/>
    <trip id="veh99" type="veh_passenger" depart="293.85" departLane="best" from="14464622#0" to="115229335"/>
    <trip id="veh100" type="veh_passenger" depart="296.82" departLane="best" from="697848280" to="97050360#1"/>
    <trip id="veh101" type="veh_passenger" depart="299.79" departLane="best" from="20437797#1" to="369007476#1"/>
    <trip id="veh102" type="veh_passenger" depart="302.76" departLane="best" from="-23791683#6" to="-520495295#2"/>
    <trip id="veh103" type="veh_passenger" depart="305.73" departLane="best" from="715087202#0" to="20437775#2"/>
    <trip id="veh104" type="veh_passenger" depart="308.69" departLane="best" from="184279492#2" to="399859418#3"/>
    <trip id="veh105" type="veh_passenger" depart="311.66" departLane="best" from="-15230000#1" to="20441550#3"/>
    <trip id="veh106" type="veh_passenger" depart="314.63" departLane="best" from="15389819#5" to="54725641#3"/>
    <trip id="veh107" type="veh_passenger" depart="317.60" departLane="best" from="-23791684#3" to="698053493#1"/>
    <trip id="veh108" type="veh_passenger" depart="320.57" departLane="best" from="-174955284#0" to="-368672317#5"/>
    <trip id="veh109" type="veh_passenger" depart="323.54" departLane="best" from="22766391#1" to="23791997#0"/>
    <trip id="veh110" type="veh_passenger" depart="326.50" departLane="best" from="-41591446" to="-22737021#1"/>
    <trip id="veh111" type="veh_passenger" depart="329.47" departLane="best" departSpeed="max" from="606974222" to="-42474489#0"/>
    <trip id="veh112" type="veh_passenger" depart="332.44" departLane="best" from="22766391#0" to="22767294"/>
    <trip id="veh113" type="veh_passenger" depart="335.41" departLane="best" from="131339230" to="20441550#1"/>
    <trip id="veh114" type="veh_passenger" depart="338.38" departLane="best" from="174955283#0" to="69344068#2"/>
    <trip id="veh116" type="veh_passenger" depart="344.31" departLane="best" from="-418612366" to="-701943514"/>
    <trip id="veh117" type="veh_passenger" depart="347.28" departLane="best" from="362262995" to="-52502294"/>
    <trip id="veh118" type="veh_passenger" depart="350.25" departLane="best" departSpeed="max" from="-547101277" to="406017624#1"/>
    <trip id="veh119" type="veh_passenger" depart="353.22" departLane="best" from="-164014457#0" to="142758621#0"/>
    <trip id="veh120" type="veh_passenger" depart="356.19" departLane="best" from="97236164" to="97050360#1"/>
    <trip id="veh121" type="veh_passenger" depart="359.15" departLane="best" from="-164014457#1" to="-392689407#1"/>
    <trip id="veh122" type="veh_passenger" depart="362.12" departLane="best" from="-447214435" to="69344068#0"/>
    <trip id="veh123" type="veh_passenger" depart="365.09" departLane="best" from="-684608919#2" to="-23791993#1"/>
    <trip id="veh125" type="veh_passenger" depart="371.03" departLane="best" from="233525220#0" to="832749277"/>
    <trip id="veh126" type="veh_passenger" depart="374.00" departLane="best" from="263684088" to="-119617681"/>
    <trip id="veh127" type="veh_passenger" depart="376.96" departLane="best" from="52781449#1" to="-520495295#7"/>
    <trip id="veh128" type="veh_passenger" depart="379.93" departLane="best" from="297105558#2" to="697183346#1"/>
    <trip id="veh129" type="veh_passenger" depart="382.90" departLane="best" departSpeed="max" from="-233525222" to="-20441587"/>
    <trip id="veh130" type="veh_passenger" depart="385.87" departLane="best" departSpeed="max" from="-20437775#2" to="180964039#5"/>
    <trip id="veh131" type="veh_passenger" depart="388.84" departLane="best" from="-47463290#1" to="22737015"/>
    <trip id="veh133" type="veh_passenger" depart="394.77" departLane="best" from="23791684#0" to="-447214436"/>
    <trip id="veh134" type="veh_passenger" depart="397.74" departLane="best" from="15229951#4" to="67096966#3"/>
    <trip id="veh135" type="veh_passenger" depart="400.71" departLane="best" from="55874615#0" to="-184279492#3"/>
    <trip id="veh136" type="veh_passenger" depart="403.68" departLane="best" from="134230455#3" to="-47519280#1"/>
    <trip id="veh137" type="veh_passenger" depart="406.65" departLane="best" departSpeed="max" from="-117567267#1" to="42472859#1"/>
    <trip id="veh138" type="veh_passenger" depart="409.61" departLane="best" from="23791991#0" to="-446506377#2"/>
    <trip id="veh139" type="veh_passenger" depart="412.58" departLane="best" departSpeed="max" from="42472859#0" to="180964039#3"/>
    <trip id="veh140" type="veh_passenger" depart="415.55" departLane="best" from="134233676#6" to="-128131688"/>
    <trip id="veh141" type="veh_passenger" depart="418.52" departLane="best" from="-174955282#0" to="601666743#2"/>
    <trip id="veh142" type="veh_passenger" depart="421.49" departLane="best" from="555826580#0" to="20437797#4"/>
    <trip id="veh143" type="veh_passenger" depart="424.46" departLane="best" from="-23788721#2" to="-22767299#1"/>
    <trip id="veh144" type="veh_passenger" depart="427.42" departLane="best" from="-529399885#3" to="610270522#0"/>
    <trip id="veh145" type="veh_passenger" depart="430.39" departLane="best" from="50637618#1" to="55874613"/>
    <trip id="veh146" type="veh_passenger" depart="433.36" departLane="best" from="667143869#2" to="-383176691#4"/>
    <trip id="veh147" type="veh_passenger" depart="436.33" departLane="best" from="-42474484#2" to="-20437775#1"/>
    <trip id="veh148" type="veh_passenger" depart="439.30" departLane="best" from="47463290#1" to="601666743#2"/>
    <trip id="veh149" type="veh_passenger" depart="442.26" departLane="best" from="115229320#2" to="22767294"/>
    <trip id="veh150" type="veh_passenger" depart="445.23" departLane="best" from="-23791683#6" to="684006412#1"/>
    <trip id="veh151" type="veh_passenger" depart="448.20" departLane="best" departSpeed="max" from="56008761" to="758213442#1"/>
    <trip id="veh152" type="veh_passenger" depart="451.17" departLane="best" from="520495295#4" to="586907419"/>
    <trip id="veh153" type="veh_passenger" depart="454.14" departLane="best" from="-142757141#0" to="383176691#6"/>
    <trip id="veh154" type="veh_passenger" depart="457.11" departLane="best" from="-565300731#3" to="684607203#0"/>
    <trip id="veh155" type="veh_passenger" depart="460.07" departLane="best" from="50648713#6" to="55874618#3"/>
    <trip id="veh156" type="veh_passenger" depart="463.04" departLane="best" from="520495295#4" to="-44848109#1"/>
    <trip id="veh158" type="veh_passenger" depart="468.98" departLane="best" from="565300731#10" to="55874609#1"/>
    <trip id="veh159" type="veh_passenger" depart="471.95" departLane="best" from="-393281020" to="50648709"/>
    <trip id="veh160" type="veh_passenger" depart="474.91" departLane="best" departSpeed="max" from="50637618#0" to="-41590952#0"/>
    <trip id="veh162" type="veh_passenger" depart="480.85" departLane="best" from="698053494#0" to="-50637616#0"/>
    <trip id="veh163" type="veh_passenger" depart="483.82" departLane="best" from="23791994" to="-720966385#0"/>
    <trip id="veh164" type="veh_passenger" depart="486.79" departLane="best" from="745481637#1" to="174955283#5"/>
    <trip id="veh165" type="veh_passenger" depart="489.76" departLane="best" departSpeed="max" from="69706093" to="-20441587"/>
    <trip id="veh166" type="veh_passenger" depart="492.72" departLane="best" departSpeed="max" from="717926947#0" to="-297105558#3"/>
    <trip id="veh167" type="veh_passenger" depart="495.69" departLane="best" from="697865649" to="-447214443#1"/>
    <trip id="veh168" type="veh_passenger" depart="498.66" departLane="best" from="-20437787" to="131339233"/>
    <trip id="veh169" type="veh_passenger" depart="501.63" departLane="best" departSpeed="max" from="41590952#0" to="-53644779"/>
    <trip id="veh170" type="veh_passenger" depart="504.60" departLane="best" from="233525211#3" to="15230009#2"/>
    <trip id="veh171" type="veh_passenger" depart="507.57" departLane="best" from="-75009997#2" to="20437775#0"/>
    <trip id="veh172" type="veh_passenger" depart="510.53" departLane="best" departSpeed="max" from="-430200030#1" to="362262996#1"/>
    <trip id="veh173" type="veh_passenger" depart="513.50" departLane="best" from="-115229320#1" to="684006411#2"/>
    <trip id="veh174" type="veh_passenger" depart="516.47" departLane="best" from="180964039#2" to="370956704#0"/>
    <trip id="veh175" type="veh_passenger" depart="519.44" departLane="best" departSpeed="max" from="42472859#0" to="23791993#3"/>
    <trip id="veh176" type="veh_passenger" depart="522.41" departLane="best" from="-684006411#7" to="-164014452#1"/>
    <trip id="veh177" type="veh_passenger" depart="525.37" departLane="best" from="297105558#4" to="-55874617"/>
    <trip id="veh179" type="veh_passenger" depart="531.31" departLane="best" from="399859419#0" to="-52502298#0"/>
    <trip id="veh180" type="veh_passenger" depart="534.28" departLane="best" from="-529399885#6" to="-758405104#1"/>
    <trip id="veh181" type="veh_passenger" depart="537.25" departLane="best" departSpeed="max" from="115229317#0" to="-520495295#0"/>
    <trip id="veh182" type="veh_passenger" depart="540.22" departLane="best" from="-22767299#1" to="115229320#1"/>
    <trip id="veh183" type="veh_passenger" depart="543.18" departLane="best" departSpeed="max" from="69706093" to="23795594"/>
    <trip id="veh184" type="veh_passenger" depart="546.15" departLane="best" from="67096966#3" to="22764741#1"/>
    <trip id="veh185" type="veh_passenger" depart="549.12" departLane="best" from="-520495295#7" to="174970475#2"/>
    <trip id="veh186" type="veh_passenger" depart="552.09" departLane="best" from="-115229317#1" to="-50648713#2"/>
    <trip id="veh187" type="veh_passenger" depart="555.06" departLane="best" departSpeed="max" from="134889168#0" to="20437775#2"/>
    <trip id="veh188" type="veh_passenger" depart="558.02" departLane="best" from="266622813#1" to="14464604#1"/>
    <trip id="veh189" type="veh_passenger" depart="560.99" departLane="best" from="142757141#0" to="-392689407#3"/>
    <trip id="veh190" type="veh_passenger" depart="563.96" departLane="best" from="148634908#7" to="667143869#2"/>
    <trip id="veh191" type="veh_passenger" depart="566.93" departLane="best" from="50637618#1" to="-266622814#0"/>
    <trip id="veh192" type="veh_passenger" depart="569.90" departLane="best" from="-174955296#5" to="15389819#1"/>
    <trip id="veh193" type="veh_passenger" depart="572.87" departLane="best" from="23791683#4" to="-55874620"/>
    <trip id="veh194" type="veh_passenger" depart="575.83" departLane="best" from="529399885#0" to="404277029#0"/>
    <trip id="veh195" type="veh_passenger" depart="578.80" departLane="best" from="362262995" to="-408197311#3"/>
    <trip id="veh197" type="veh_passenger" depart="584.74" departLane="best" from="-42294993#3" to="14464633#1"/>
    <trip id="veh198" type="veh_passenger" depart="587.71" departLane="best" from="55874618#0" to="-164014457#0"/>
    <trip id="veh199" type="veh_passenger" depart="590.68" departLane="best" from="128130064#0" to="233525211#4"/>
    <trip id="veh200" type="veh_passenger" depart="593.64" departLane="best" from="-368741976#0" to="297105558#6"/>
    <trip id="veh201" type="veh_passenger" depart="596.61" departLane="best" from="15229980#4" to="-42474484#1"/>
    <trip id="veh203" type="veh_passenger" depart="602.55" departLane="best" from="42474489#1" to="423969274#0"/>
    <trip id="veh204" type="veh_passenger" depart="605.52" departLane="best" departSpeed="max" from="-20437775#2" to="117567267#1"/>
    <trip id="veh205" type="veh_passenger" depart="608.48" departLane="best" departSpeed="max" from="-266622814#1" to="697864946#0"/>
    <trip id="veh206" type="veh_passenger" depart="611.45" departLane="best" from="164014455#0" to="-148634908#6"/>
    <trip id="veh208" type="veh_passenger" depart="617.39" departLane="best" from="14464622#3" to="47463134#0"/>
    <trip id="veh209" type="veh_passenger" depart="620.36" departLane="best" from="336683447#1" to="832749277"/>
    <trip id="veh210" type="veh_passenger" depart="623.33" departLane="best" from="22766391#3" to="697183355#6"/>
    <trip id="veh211" type="veh_passenger" depart="626.29" departLane="best" departSpeed="max" from="606974222" to="22737020#8"/>
    <trip id="veh212" type="veh_passenger" depart="629.26" departLane="best" from="399859418#3" to="15229955"/>
    <trip id="veh213" type="veh_passenger" depart="632.23" departLane="best" from="54725641#0" to="174970475#2"/>
    <trip id="veh214" type="veh_passenger" depart="635.20" departLane="best" from="610270522#1" to="392689407#6"/>
    <trip id="veh215" type="veh_passenger" depart="638.17" departLane="best" from="15093785#0" to="-442773117"/>
    <trip id="veh216" type="veh_passenger" depart="641.14" departLane="best" from="-42472859#5" to="233525220#1"/>
    <trip id="veh217" type="veh_passenger" depart="644.10" departLane="best" from="446506377#1" to="163585086#1"/>
    <trip id="veh218" type="veh_passenger" depart="647.07" departLane="best" from="23788721#2" to="-475020758#5"/>
    <trip id="veh219" type="veh_passenger" depart="650.04" departLane="best" from="-174955283#3" to="-50637618#5"/>
    <trip id="veh220" type="veh_passenger" depart="653.01" departLane="best" from="-458101428" to="-55874606#0"/>
    <trip id="veh221" type="veh_passenger" depart="655.98" departLane="best" departSpeed="max" from="-408197311#8" to="297105558#1"/>
    <trip id="veh222" type="veh_passenger" depart="658.94" departLane="best" from="383176691#2" to="-163585086#2"/>
    <trip id="veh223" type="veh_passenger" depart="661.91" departLane="best" from="131335281#1" to="-383176690#2"/>
    <trip id="veh224" type="veh_passenger" depart="664.88" departLane="best" from="131339233" to="67096966#2"/>
    <trip id="veh225" type="veh_passenger" depart="667.85" departLane="best" from="22737008#0" to="297105558#4"/>
    <trip id="veh226" type="veh_passenger" depart="670.82" departLane="best" departSpeed="max" from="55874621" to="42294196#1"/>
    <trip id="veh227" type="veh_passenger" depart="673.79" departLane="best" from="-720966385#1" to="-119617681"/>
    <trip id="veh228" type="veh_passenger" depart="676.75" departLane="best" from="-67096966#7" to="408197311#1"/>
    <trip id="veh229" type="veh_passenger" depart="679.72" departLane="best" from="55874618#8" to="697712600#1"/>
    <trip id="veh230" type="veh_passenger" depart="682.69" departLane="best" from="131339230" to="393281020"/>
    <trip id="veh231" type="veh_passenger" depart="685.66" departLane="best" from="19881631#3" to="22737005#0"/>
    <trip id="veh232" type="veh_passenger" depart="688.63" departLane="best" from="-392689407#7" to="-399859419#0"/>
    <trip id="veh233" type="veh_passenger" depart="691.59" departLane="best" from="140038551#0" to="-142758621#0"/>
    <trip id="veh234" type="veh_passenger" depart="694.56" departLane="best" departSpeed="max" from="-601666743#2" to="23795596"/>
    <trip id="veh236" type="veh_passenger" depart="700.50" departLane="best" from="14464658#4" to="-22767299#1"/>
    <trip id="veh238" type="veh_passenger" depart="706.44" departLane="best" from="-83370314#1" to="19881634"/>
    <trip id="veh239" type="veh_passenger" depart="709.40" departLane="best" departSpeed="max" from="-142757141#1" to="233525226#0"/>
    <trip id="veh240" type="veh_passenger" depart="712.37" departLane="best" departSpeed="max" from="-233525222" to="142759471"/>
    <trip id="veh241" type="veh_passenger" depart="715.34" departLane="best" from="-148634908#7" to="-684006411#2"/>
    <trip id="veh242" type="veh_passenger" depart="718.31" departLane="best" from="-383176690#2" to="-55874614"/>
    <trip id="veh243" type="veh_passenger" depart="721.28" departLane="best" departSpeed="max" from="442773117" to="-684006411#3"/>
    <trip id="veh244" type="veh_passenger" depart="724.25" departLane="best" from="42474506#1" to="520495295#5"/>
    <trip id="veh245" type="veh_passenger" depart="727.21" departLane="best" from="-42474506#3" to="-174955294#0"/>
    <trip id="veh246" type="veh_passenger" depart="730.18" departLane="best" from="-140038552#0" to="174955284#2"/>
    <trip id="veh247" type="veh_passenger" depart="733.15" departLane="best" from="97236180#0" to="-56008764"/>
    <trip id="veh249" type="veh_passenger" depart="739.09" departLane="best" from="263684087#0" to="408197311#2"/>
    <trip id="veh250" type="veh_passenger" depart="742.05" departLane="best" from="697183355#3" to="-37522069"/>
    <trip id="veh252" type="veh_passenger" depart="747.99" departLane="best" from="-22767297" to="23791993#1"/>
    <trip id="veh254" type="veh_passenger" depart="753.93" departLane="best" departSpeed="max" from="37523270#0" to="42294991"/>
    <trip id="veh255" type="veh_passenger" depart="756.90" departLane="best" from="-23791996" to="22737018"/>
    <trip id="veh256" type="veh_passenger" depart="759.86" departLane="best" from="42474484#3" to="-20441580#1"/>
    <trip id="veh260" type="veh_passenger" depart="771.74" departLane="best" from="697849441#0" to="-715087202#1"/>
    <trip id="veh261" type="veh_passenger" depart="774.70" departLane="best" from="392689407#6" to="-174955282#1"/>
    <trip id="veh263" type="veh_passenger" depart="780.64" departLane="best" departSpeed="max" from="-19926892#1" to="42472859#3"/>
    <trip id="veh264" type="veh_passenger" depart="783.61" departLane="best" from="55874618#1" to="22736999"/>
    <trip id="veh265" type="veh_passenger" depart="786.58" departLane="best" from="-22764741#1" to="80699620#3"/>
    <trip id="veh266" type="veh_passenger" depart="789.55" departLane="best" from="134889167#1" to="-67122011#2"/>
    <trip id="veh267" type="veh_passenger" depart="792.51" departLane="best" departSpeed="max" from="163513448" to="-56008759#0"/>
    <trip id="veh268" type="veh_passenger" depart="795.48" departLane="best" from="55874618#0" to="50648713#7"/>
    <trip id="veh269" type="veh_passenger" depart="798.45" departLane="best" departSpeed="max" from="-20437775#2" to="698053493#1"/>
    <trip id="veh270" type="veh_passenger" depart="801.42" departLane="best" from="23791684#2" to="50648723#1"/>
    <trip id="veh271" type="veh_passenger" depart="804.39" departLane="best" from="383176691#4" to="131340350#1"/>
    <trip id="veh273" type="veh_passenger" depart="810.32" departLane="best" from="-44848116#2" to="47519280#2"/>