<?xml version="1.0" encoding="UTF-8"?>

<!-- generated on 01/28/21 10:17:10 by Eclipse SUMO duarouter Version 1.8.0
<configuration xmlns:xsi="http://www.w3.org/2001/XMLSchema-instance" xsi:noNamespaceSchemaLocation="http://sumo.dlr.de/xsd/duarouterConfiguration.xsd">

    <input>
        <net-file value="C:\Users\BenoitG\2021-01-28-10-16-40\osm.net.xml"/>
        <additional-files value="C:\Users\BenoitG\2021-01-28-10-16-40\osm_stops.add.xml,C:\Users\BenoitG\2021-01-28-10-16-40\osm_pt.rou.xml"/>
        <route-files value="C:\Users\BenoitG\2021-01-28-10-16-40\osm.pedestrian.trips.xml"/>
    </input>

    <output>
        <output-file value="C:\Users\BenoitG\2021-01-28-10-16-40\osm.pedestrian.rou.xml"/>
        <alternatives-output value="C:\Users\BenoitG\2021-01-28-10-16-40\osm.pedestrian.rou.alt.xml"/>
    </output>

    <time>
        <begin value="0"/>
        <end value="3600"/>
    </time>

    <report>
        <no-warnings value="true"/>
        <ignore-errors value="true"/>
        <no-step-log value="true"/>
    </report>

</configuration>
-->

<routes xmlns:xsi="http://www.w3.org/2001/XMLSchema-instance" xsi:noNamespaceSchemaLocation="http://sumo.dlr.de/xsd/routes_file.xsd">
    <vType id="ped_pedestrian" vClass="pedestrian"/>
    <person id="ped0" type="ped_pedestrian" depart="0.00">
        <walk edges="326551910#1 326551910#0 -326551909 -118741686#0 118741686#1 -326551906#0 -326551906#1 -326551906#2 -442773130 750440031 219716165 -587860114 -118644064 -119859599 -119859565#0 119859564#0 -119859564#1 -121860444"/>
    </person>
    <person id="ped1" type="ped_pedestrian" depart="0.81">
        <walk edges="-548040154#0 -332482917#0 -332482917#1 134230456#1 525190071#0 525190071#1 490488010#2 490488010#1 490488010#0 758405102#1 686496242#1 686496242#0 720845271 -832745421#10" busStop="-3980845786"/> <!-- Joliot-Curie -->
        <ride busStop="-5905118384" lines="ANY" depart="674.00"/> <!-- Saint-Aubin -->
        <walk edges="-436119957#2 -436119957#3 -293817953 -414494035#1 414494035#2 -66969534 66969533#2 42724053#1 -42724053#0"/>
    </person>
    <person id="ped2" type="ped_pedestrian" depart="1.62">
        <walk edges="48240411#0 -685010986#0 -685010986#1 -685010987#0 383176690#2 698053496#2 698053496#1 698053496#0 690525959 758213432#0 720845272#2 -874840615 667143869#0 667143869#1 667143869#2 667143869#3 667143869#4 -606061323#7 -606061323#6 -606061323#4 -606061323#2 -606061323#1 -606061323#0 490488013#0 863336412#4" busStop="6551894424"/> <!-- Université Paris-Saclay -->
        <ride busStop="-6551894423" lines="ANY" depart="1122.00"/> <!-- Corbeville -->
        <ride busStop="6551894422" lines="ANY" depart="1374.00"/> <!-- Palaiseau - Campus -->
        <walk edges="219719294#8 423684629#0 408197311#6"/>
    </person>
    <person id="ped3" type="ped_pedestrian" depart="2.43">
        <walk edges="722225470 292491931#1 455371645 -455371646 -446506378 -417610536#1 610270522#0 -863336412#4" busStop="-4096918910"/> <!-- Université Paris-Saclay -->
        <ride busStop="-3980845786" lines="ANY" depart="795.00"/> <!-- Joliot-Curie -->
        <walk edges="-832745421#10 20437797#1 -20437797#2 -20437797#3"/>
    </person>
    <person id="ped4" type="ped_pedestrian" depart="3.24">
        <walk edges="119403142 47463134#3 47463134#2 47463134#1 119403148#2 119403148#1 -119403148#0 143311245#1 527943457#1" busStop="1420982408"/> <!-- Versailles -->
        <ride busStop="-6551894444" lines="ANY" depart="629.00"/> <!-- Moulon TCSP -->
        <walk edges="-863336412#1 134230456#2 134230456#1 -332482917#1 -332482917#0 -548040154#1 -131002535#0"/>
    </person>
    <person id="ped5" type="ped_pedestrian" depart="4.05">
        <walk edges="-42294196#0 -22766391#2 -22766391#0 97236166 37523270#2 97236163 -380969254 143310762 143310759 -140997927#1 -140997927#2 -119859565#2 -119859565#1 -119859565#0 119859564#0 -119859564#1 121860444 121860431 -96152205#1 -96152205#2 -96152251#2 -96152251#0 26824848#4 -26824848#2 -26824848#1 -26824848#0 -392689403#0 -392689403#1 532830795#1 671116033#0 671116033#2 671116033#3 174970470#3"/>
    </person>
    <person id="ped6" type="ped_pedestrian" depart="4.86">
        <walk edges="-121860452 -119859564#2 -119859564#1 119859564#0 -119859565#0 -119891710#2 -119891710#1 -408853450 119891045#0 -97050361 150550540 -150550528 142757385 55874620 442773124 -233647946 621757915 -621757918 527943457#1" busStop="1420982408"/> <!-- Versailles -->
        <ride busStop="1114038113" lines="ANY" depart="629.00"/> <!-- Mûriers -->
        <ride busStop="1335923953" lines="ANY" depart="876.00"/> <!-- Plateau de Moulon - Corbeville -->
        <walk edges="20437760#1 20437760#0 697183355#8 22736995#1 22736995#0 -399859418#3 -399859418#1 -399859418#0"/>
    </person>
    <person id="ped7" type="ped_pedestrian" depart="5.67">
        <walk edges="37522154#1 37522154#0 42467801 97236171 -142757389 22764741#1 539883986 539883989 164014471#2 47463090#1 701943519" busStop="1732826840"/> <!-- Gare du Guichet RER -->
        <ride busStop="-6414402744" lines="ANY" depart="442.00"/> <!-- Université Paris-Saclay -->
        <walk edges="-20437767#1 -863336412#5 -863336412#4" busStop="-4096918910"/> <!-- Université Paris-Saclay -->
        <ride busStop="-1722769930" lines="ANY" depart="1086.00"/> <!-- Martinière -->
        <walk edges="-22736355#1 -22736384#1 -22736384#0 334242030 22736382#3 -767622440#0 243662949 22736381#5"/>
    </person>
    <person id="ped8" type="ped_pedestrian" depart="6.48">
        <walk edges="-42474484#1 -42474484#0 -447214434 174955280#1 174955280#2 174955280#3 174955279 684607203#0 684607203#1 475020758#0 475020758#1" busStop="6414402746"/> <!-- De Broglie -->
        <ride busStop="6414402745" lines="ANY" depart="639.00"/> <!-- Lieu de Vie -->
        <walk edges="475020758#5 475020758#7 533535799 770887940#0 770887940#1 758220776 610270522#0 863336412#4" busStop="6551894424"/> <!-- Université Paris-Saclay -->
        <ride busStop="6938530460" lines="ANY" depart="1122.00"/> <!-- Ferme de la Vauve -->
        <walk edges="747059915#1 867981794#1 406513809#1 -363081449#0 -363081449#1 -363081449#2 478028845 -250683475#0 -250683475#1 250683475#2"/>
    </person>
    <person id="ped9" type="ped_pedestrian" depart="7.29">
        <walk edges="598002456#1 598002457 -598002439 -160212594#5 -160212594#4 718347774#4 455371648#2 399859419#0 399859419#1 -720845271" busStop="-6552378820"/> <!-- Joliot-Curie -->
        <ride busStop="-6551894423" lines="ANY" depart="920.00"/> <!-- Corbeville -->
        <walk edges="-361585732#1 804749914#0 525187037#0 -392689403#0 -26824848#0 -26824848#1 -26824848#2 26824848#4 -96152251#0 -96152251#2 -96152205#2 -96152205#1 121860431 121860444 -119859564#1 119859564#0 -119859565#0 -119859599 -118644742#0 -118644742#1 -118644742#2"/>
    </person>
    <person id="ped10" type="ped_pedestrian" depart="8.10">
        <walk edges="598002445#2 -598002445#3 598002445#4 -562754424#7 -598002438#0 -598002438#2 -598002438#3 598002456#0 598002456#1 598002457 -598002439 -160212594#5 -160212594#4 718347774#4 455371648#2 399859419#0 399859419#1 -720845271" busStop="-6552378820"/> <!-- Joliot-Curie -->
        <ride busStop="6551894424" lines="ANY" depart="920.00"/> <!-- Université Paris-Saclay -->
        <walk edges="863336412#4 -863336412#5 20437767#1" busStop="1722770104"/> <!-- Université Paris-Saclay -->
        <ride busStop="1732826814" lines="ANY" depart="1709.00"/> <!-- Gare du Guichet RER -->
        <walk edges="701943517 701943518 701943519 47463090#1 164014471#2 539883989 539883986 22764741#1 -142757389 97236171 42467801 37522154#0 37522154#1 37522154#2 97236176 41656939#0 43675523#0"/>
    </person>
    <person id="ped11" type="ped_pedestrian" depart="8.91">
        <walk edges="-702025195#1 702025195#0 23430346#16 307785395#1 832745424#2 832745415#0 -414507699 -414507700#0 -26974320#2 -206740716#2 -206740716#1 -23440229#2 -26975212#4 -26975358#0"/>
    </person>
    <person id="ped12" type="ped_pedestrian" depart="9.72">
        <walk edges="821251483#1 219719293#2 219719293#3 673412899#0 867981798 -697839700" busStop="-6938530461"/> <!-- Place Marguerite Perey -->
        <ride busStop="-4096918910" lines="ANY" depart="365.00"/> <!-- Université Paris-Saclay -->
        <walk edges="-863336412#4 -863336412#5 -782860080 -691254185"/>
    </person>
    <person id="ped13" type="ped_pedestrian" depart="10.53">
        <walk edges="-208425618#2 -208425636#1 -208425633#0 -150260492#2 -40650969 -51750038#1 -51750038#0 51750039#1 -371614563#1 -865698441 -482015524#0 -402014070 26611589#1 40665277 544895464#1 26611620#1 158082088#1 26611647#0 26611647#1 316905861#0 316905861#1 316905861#3 821251480#1 219719293#1 219719293#2 219719293#3 673412899#0 867981798 404287181#0 404287181#1 404287181#2 404287181#4 747059916 47519280#0 -47519280#3 -215654684#4 -215654684#3 -215654684#1"/>
    </person>
    <person id="ped14" type="ped_pedestrian" depart="11.34">
        <walk edges="66969533#2 -66969534 414494035#2 -414494035#1 832745415#0 -414507699 -414507700#0 -26974320#2 -206740716#2 -206740716#1 -206740716#0 -23440338#6 -23440338#5 -23440318#4 -23440318#3 -626462629 -26974349#5 -26974349#6 26974405#0"/>
    </person>
    <person id="ped15" type="ped_pedestrian" depart="12.15">
        <walk edges="598002447 -598002446#3 -598002440#1 598002440#0 -160212594#6 -160212594#5 -160212594#4 718347774#4 455371648#2 399859419#0 399859419#1 -720845271" busStop="-6552378820"/> <!-- Joliot-Curie -->
        <ride busStop="6938530460" lines="ANY" depart="920.00"/> <!-- Ferme de la Vauve -->
        <walk edges="747059915#1 747059915#0 -747059916 -47519280#0 47519280#1"/>
    </person>
    <person id="ped16" type="ped_pedestrian" depart="12.96">
        <walk edges="22736360#8 482015496#0 482015496#1 -22736358#3 -22736372#0 -22736372#1 22736364#5 -577283188 22741127#1 606292218 -606292219#3 -606292219#2 -606292219#1 -414507704#1 -160212545#0" busStop="-1341753267"/> <!-- La Martinière -->
        <ride busStop="6551894425" lines="ANY" depart="580.00"/> <!-- Moulon TCSP -->
        <walk edges="863336412#1 134230456#3 -667143869#4 -606061323#7 160212616#0 160212616#1 -160212616#2 -160212616#3 -160212616#4 899493107"/>
    </person>
    <person id="ped17" type="ped_pedestrian" depart="13.77">
        <walk edges="-832745421#3 832749275#0 832749276 48832572 832749277#2 832749277#1 832749277#0 67046099 -134889167#0 -134889167#1 -455371648#2 399859419#0 399859419#1 720845271 20437797#1 20437797#2 20437797#3 20437797#4" busStop="6451425153"/> <!-- Joliot Curie -->
        <ride busStop="-6414402742" lines="ANY" depart="908.00"/> <!-- Lieu de Vie -->
        <walk edges="-475020758#7 647318805 720966385#2 -684006413 20437775#1 20437775#0 20437771#0 20437771#3 -20437774 55874612 22737020#1 22737020#0 22737020#9"/>
    </person>
    <person id="ped18" type="ped_pedestrian" depart="14.58">
        <walk edges="622101810#3 96000895#2" busStop="1482218088"/> <!-- CEA Porte Nord -->
        <ride busStop="6551894431" lines="ANY" depart="152.00"/> <!-- Christ de Saclay -->
        <walk edges="720574245#0 741972943" busStop="6551894431@7886546"/> <!-- Christ de Saclay -->
        <ride busStop="6551894424" lines="ANY" depart="675.00"/> <!-- Université Paris-Saclay -->
        <walk edges="863336412#4 606061322#2 -289508735#4 289508735#3"/>
    </person>
    <person id="ped19" type="ped_pedestrian" depart="15.39">
        <walk edges="684006411#2 684006411#1 -647318805 -475020758#7 -174955283#0 174955283#2 174955283#3 174955283#5 174955283#6 174955283#7 174955283#8 417206210#0 417206210#1 417206210#2" busStop="6451425150"/> <!-- CentraleSupélec -->
        <ride busStop="-1345294971" lines="ANY" depart="784.00"/> <!-- Orme des Merisiers -->
        <ride busStop="-5905118364" lines="ANY" depart="1135.00"/> <!-- Raoul Dautry - CEA Porte Est -->
        <walk edges="-436119957#1 -414507709#0 61972826#1 -591263044#1 -591263044#2 23443387#0 23443387#6 -452076891#4 625699017#8 27108518 27108503#0 -27108334#7 -27108334#8 -27108334#9 -23440338#3 23440338#4"/>
    </person>
    <person id="ped20" type="ped_pedestrian" depart="16.20">
        <walk edges="443995832#2 443995832#1 443995832#0 -443995836 408197311#6 408197311#7 408197311#8 -673347936#1 867981798 219719293#6 142053895#3 -142053895#2 -142053895#1 -142053903#1 -142053903#2 -142053903#3"/>
    </person>
    <person id="ped21" type="ped_pedestrian" depart="17.01">
        <walk edges="-442773112#0 -442773112#1 115229320#0 115229320#1 115229320#2" busStop="1855952971"/> <!-- Bois des Rames -->
        <ride busStop="-6414402744" lines="ANY" depart="151.00"/> <!-- Université Paris-Saclay -->
        <walk edges="-20437767#1 20437767#1" busStop="1722770104"/> <!-- Université Paris-Saclay -->
        <ride busStop="-6551894423" lines="ANY" depart="547.00"/> <!-- Corbeville -->
        <walk edges="-361585732#1 804749914#0 525187037#0 -392689403#0 -26824848#0 -26824848#1 -26824848#2 26824848#4 -96152251#0 -96152251#2 -96152205#2 -96152205#1 121860431 121860444 -119859564#1 119859564#0 -119859565#0 -119859599 -118644064 -587860114"/>
    </person>
    <person id="ped22" type="ped_pedestrian" depart="17.82">
        <walk edges="-174970474#1 164014471#0 -22764743#0 140038552#0 164014452#1 15229949 374675896#1 164014455#0 -164014455#1 -164014454 -42474484#3 -206661952 -161287421 241988389#1 -15389819#2 -15389819#1 -15389819#0 -233525235 -442773123 -447214443#1 -447214443#0"/>
    </person>
    <person id="ped23" type="ped_pedestrian" depart="18.63">
        <walk edges="-219720843 -414507702#0 436119957#1" busStop="5905118351"/> <!-- Mare du Vivier - CEA Porte Sud -->
        <ride busStop="6551894425" lines="ANY" depart="999.00"/> <!-- Moulon TCSP -->
        <walk edges="863336412#1 134230456#3 667143869#3 -698053484#1 627022000#2 627022000#1 627022000#0 417206210#2 -417206210#1 -417206210#0 554040620#1 -554040620#2 554040620#3 -554040620#3"/>
    </person>
    <person id="ped24" type="ped_pedestrian" depart="19.44">
        <walk edges="317765099#1 -317765100 131002535#4 134230455#2 134230455#3 -134230455#5 863336412#3 -863336412#4 -863336412#5 20437767#1" busStop="1722770104"/> <!-- Université Paris-Saclay -->
        <ride busStop="6551894422" lines="ANY" depart="547.00"/> <!-- Palaiseau - Campus -->
        <walk edges="219719294#8 -408197310#2 -408197310#3 -408197310#4 -408197310#5 -771871381"/>
    </person>
    <person id="ped25" type="ped_pedestrian" depart="20.25">
        <walk edges="-783248713#2 22737108#0 339736822#0 363081449#4 363081449#3 363081449#2 363081449#1 363081449#0 -747059917 -747059916 -47519280#0 -47519280#3 -47519280#7 -47519280#8 -392689403#0 525187037#0 804749914#0 361585732#1" busStop="1114038111"/> <!-- Corbeville -->
        <ride busStop="-4096918910" lines="ANY" depart="1195.00"/> <!-- Université Paris-Saclay -->
        <walk edges="-863336412#4 -610270522#0 -758220776 -758220777 -770887940#0 -533535799 -475020758#7" busStop="-6414402742"/> <!-- Lieu de Vie -->
        <ride busStop="-677507133" lines="ANY" depart="1965.00"/> <!-- Bois des Rames -->
        <walk edges="-115229320#1 -115229320#2 -447214435 -408853457#1"/>
    </person>
    <person id="ped26" type="ped_pedestrian" depart="21.06">
        <walk edges="-51750135 118793670#1 118793670#0 -410000812 -410000816 867981793 406513809#0" busStop="6938530459"/> <!-- Ferme de la Vauve -->
        <ride busStop="-6551894447" lines="ANY" depart="246.00"/> <!-- Palaiseau - Campus -->
        <walk edges="-219719294#8 -219719294#7 597837599#0 771871398 771871387#0 771871384 771871389#0 771871397#0"/>
    </person>
    <person id="ped27" type="ped_pedestrian" depart="21.87">
        <walk edges="374541369 767487777 22736360#8 482015496#0 482015496#1 -22736358#3 -22736372#0 -22736372#1 22736364#5 -577283188 22741127#1 606292218 -606292219#3 -606292219#2 -606292219#1 -414507704#1 -160212545#0" busStop="-1341753267"/> <!-- La Martinière -->
        <ride busStop="5905123676" lines="ANY" depart="580.00"/> <!-- Raoul Dautry - CEA Porte Est -->
        <walk edges="436119957#1 -414507709#0 61972826#1 -591263044#1 625699017#6 -591263042#1 -206719754#10 -206719754#9 26975212#2 26975359 26975358#1"/>
    </person>
    <person id="ped28" type="ped_pedestrian" depart="22.68">
        <walk edges="-307785385#6 -307783236#11 -307783236#10 -307783236#9 -307783236#8 -307783236#7 -307783236#6 307783236#5 307783236#4 -307783236#3 307785395#2 414129018#0 832745421#3" busStop="1345294973"/> <!-- Orme des Merisiers -->
        <ride busStop="6551894425" lines="ANY" depart="768.00"/> <!-- Moulon TCSP -->
        <walk edges="863336412#1 863336412#2 134230455#4 134230455#3 134230455#2 134230455#1 134230455#0 -399859418#0 -399859418#1 47518877#0"/>
    </person>
    <person id="ped29" type="ped_pedestrian" depart="23.49">
        <walk edges="-289508735#1 174955283#5 174955283#6 174955283#7 174955283#8 417206210#0 417206210#1 417206210#2 627022000#0 627022000#1 627022000#2 698053484#1 667143869#2 -667143869#1 525190071#3 -863336412#1" busStop="-6551894444"/> <!-- Moulon TCSP -->
        <ride busStop="-3980845786" lines="ANY" depart="590.00"/> <!-- Joliot-Curie -->
        <walk edges="-832745421#10 -832745421#9"/>
    </person>
    <person id="ped30" type="ped_pedestrian" depart="24.30">
        <walk edges="96152249 -96152198#1 -96152229#12 -96152229#13 96152230 96152223#0 -96152223#1 163403583 263684087#1 263684087#0 393281020 55429077#0 55429103 697183346#3 697183346#2 697183346#1 22737001#1 22737001#0 22737000 22736999 697183355#4 697183355#5 697183355#6 22737005#0 22737005#1 -399859418#3 -399859418#1 -399859418#0 134230455#0 134230455#1 131002535#4 131002535#3 131002535#2 -548040154#0 332482917#0"/>
    </person>
    <person id="ped31" type="ped_pedestrian" depart="25.11">
        <walk edges="22741127#1 22741127#0 22736355#1 22736355#2 22736355#3 22736355#4 22736355#6 884639569#0 821819201#2 160212545#0 414507704#1"/>
    </person>
    <person id="ped32" type="ped_pedestrian" depart="25.92">
        <walk edges="658561117#2 658561117#3 658561117#4 -658561117#5 -658561127 -119855745 -554317503#1 554317503#2 96000895#0 96000895#1 96000895#2" busStop="1482218088"/> <!-- CEA Porte Nord -->
        <ride busStop="6551894431" lines="ANY" depart="752.00"/> <!-- Christ de Saclay -->
        <walk edges="720574245#0 741972943" busStop="6551894431@7886546"/> <!-- Christ de Saclay -->
        <ride busStop="6551894425" lines="ANY" depart="1275.00"/> <!-- Moulon TCSP -->
        <walk edges="863336412#1 134230456#3 667143869#3 -698053484#1 627022000#2 627022000#1 627022000#0 417206210#2 -417206210#1 -417206210#0 554040620#1 554040620#2"/>
    </person>
    <person id="ped33" type="ped_pedestrian" depart="26.73">
        <walk edges="-442773124 -55874620 142757385 -150550528 150550540 -142759472 -131335760"/>
    </person>
    <person id="ped34" type="ped_pedestrian" depart="27.54">
        <walk edges="-621783201 -621783196#0 621783197 621783195 621783194#1 -621783194#2 -52502299#0 -442773110 52502295 -442773115 447214435 115229320#2" busStop="1855952971"/> <!-- Bois des Rames -->
        <ride busStop="6414402745" lines="ANY" depart="751.00"/> <!-- Lieu de Vie -->
        <walk edges="475020758#5 -406017624#1 -806901600 37768335#1 -521771240"/>
    </person>
    <person id="ped35" type="ped_pedestrian" depart="28.35">
        <walk edges="-410000814#2 697770118#7 697770118#6 715087198#2 376385690#1 376385690#2 376385690#3 376385690#4 376385690#5 -697839700" busStop="-6938530461"/> <!-- Place Marguerite Perey -->
        <ride busStop="-6551894444" lines="ANY" depart="365.00"/> <!-- Moulon TCSP -->
        <walk edges="-863336412#1 525190071#2 525190071#1 -756879225#1 -756879225#0 783628556#0"/>
    </person>
    <person id="ped36" type="ped_pedestrian" depart="29.16">
        <walk edges="698053494#1 -698053494#0 -758213442#1 -758213442#0 758405105#1 758405105#0 404275706#3 404275706#1 874840615 -667143869#0 -667143869#1 -667143869#2 -667143869#3 -667143869#4 -606061323#7 -606061323#6 -606061323#4 -606061323#2 -606061323#1 -606061323#0 610270522#1 -863336412#5 20437767#1" busStop="1722770104"/> <!-- Université Paris-Saclay -->
        <ride busStop="1732826814" lines="ANY" depart="1109.00"/> <!-- Gare du Guichet RER -->
        <walk edges="701943514 162031199#0 131340350#0 131340350#1 15229937#5 15229937#6 15229955 143311245#0 143311245#1 -527943457#1 55874606#2 158375656 -442773109#1 -442773109#0 321058832#1 621783196#1 -621783196#0"/>
    </person>
    <person id="ped37" type="ped_pedestrian" depart="29.97">
        <walk edges="380969252 -164014447 97236180#0 97236166 37523270#2 97236163 -380969254 143310762 143310759 -140997927#1 -140997927#2 -119859565#2 -119859565#1 -119859565#0 119859564#0 -119859564#1 -119859564#2 119859564#3 -119859564#4 -119859564#5 96152239#1 96152229#1 -96152260#8 96152260#7 -96152260#6 96152260#5 -96152260#4 -96152206#0 -96152233"/>
    </person>
    <person id="ped38" type="ped_pedestrian" depart="30.78">
        <walk edges="758213418#0 758213418#1 758213444#0 758213444#1 490488010#2 525190071#1 525190071#0 134230456#2 134230456#3 -667143869#4 -606061323#7 -606061323#6 -606061323#4 -606061323#2 -606061323#1 -606061323#0 490488013#0 863336412#4" busStop="6551894424"/> <!-- Université Paris-Saclay -->
        <ride busStop="-6551894423" lines="ANY" depart="1122.00"/> <!-- Corbeville -->
        <ride busStop="6551894422" lines="ANY" depart="1374.00"/> <!-- Palaiseau - Campus -->
        <walk edges="219719294#8 -408197311#9 -673347936#1 867981798 673412899#0 142052139 142052149#1"/>
    </person>
    <person id="ped39" type="ped_pedestrian" depart="31.59">
        <walk edges="-490490034 -783628556#1 -134230455#1 -134230455#2 -134230455#3 -134230455#5 -606061323#4 -606061323#2 -606061323#1 -606061323#0 -610270522#1 -610270522#0 -758220776 -758220777 -770887940#0 -533535799 -475020758#7" busStop="-6414402742"/> <!-- Lieu de Vie -->
        <ride busStop="-1855952972" lines="ANY" depart="765.00"/> <!-- De Broglie -->
        <walk edges="-475020758#2 -475020758#1 -475020758#0"/>
    </person>
    <person id="ped40" type="ped_pedestrian" depart="32.40">
        <walk edges="22767300 22737020#3 55874613 -20437774 20437771#3 20437771#0 20437775#0 20437775#1 -684006413 720966385#2 647318805 475020758#5" busStop="6414402745"/> <!-- Lieu de Vie -->
        <ride busStop="-1345294971" lines="ANY" depart="707.00"/> <!-- Orme des Merisiers -->
        <walk edges="-832745421#3 414129018#0 307785395#2 -307783236#3 307783236#4 307783236#5 -307783236#6 -307783236#7 -307783236#8 307783241 48561048#3 307783237 -48606898"/>
    </person>
    <person id="ped41" type="ped_pedestrian" depart="33.21">
        <walk edges="24481262#1 24481262#0 718347774#2 718347774#3 718347774#4 455371648#2 399859419#0 399859419#1 -720845271" busStop="-6552378820"/> <!-- Joliot-Curie -->
        <ride busStop="-6551894423" lines="ANY" depart="920.00"/> <!-- Corbeville -->
        <walk edges="-361585732#1 804749914#0 525187037#0 -392689403#0 -47519280#8 -47519280#7 -215654684#4 -215654684#3 -510435197 -510435199#1 736878369"/>
    </person>
    <person id="ped42" type="ped_pedestrian" depart="34.02">
        <walk edges="-96152252#1 -96152251#5 -96152251#4 -96152251#3 -96152251#2 -96152251#0 26824848#4 -26824848#2 -26824848#1 -26824848#0 -392689403#0 -392689403#1 532830795#1 671116033#0 671116033#2 671116033#3 -174970470#3 -174970470#2 -174970470#0 -414507705 22763028 538209283 -423114711#0 -423114711#1"/>
    </person>
    <person id="ped43" type="ped_pedestrian" depart="34.83">
        <walk edges="97236168 -119891710#2 -119859565#1 -119859565#2 -140997927#2 -140997927#1 143310759 143310762 -380969254 97236163 37523270#2 -233525227 37520995 -142757141#0 -142757141#1 370555488 301754080#0 41656940#2 112136926 112136937 -112136928 112136947 112136934 -112136930 19889415#2"/>
    </person>
    <person id="ped44" type="ped_pedestrian" depart="35.64">
        <walk edges="-208425591#1 208425591#1 -208425633#2 -208425633#0 -150260492#2 -40650969 -51750038#1 -51750038#0 51750039#1 -371614563#1 -865698441 -482015524#0 -402014070 26611589#1 40665277 544895464#1 26611620#1 158082088#1 26611647#0 26611647#1 316905861#0 316905861#1 316905861#3 821251480#1 -119372733#0 -142054671#2 -142054666"/>
    </person>
    <person id="ped45" type="ped_pedestrian" depart="36.45">
        <walk edges="-22736380#1 767534329 22736375#1 22736375#0 22736355#0 22736355#1 22736355#2 22736355#3 22736355#4 22736355#6 884639569#0 821819201#2 -160212545#0" busStop="-1341753267"/> <!-- La Martinière -->
        <ride busStop="6551894428" lines="ANY" depart="580.00"/> <!-- Saint-Aubin -->
        <walk edges="436119957#2 -436119957#3 -293817953 832745424#2 307785395#1 307785395#2 -307783236#3 307783236#4 307783236#5 -307783236#6 -307783236#7 -307783236#8 -307783236#9 -307783236#10 308140167#7 454902690 307785385#5"/>
    </person>
    <person id="ped46" type="ped_pedestrian" depart="37.26">
        <walk edges="585760137 698053495#0 690525959 758213432#0 720845272#2 -874840615 667143869#0 667143869#1 667143869#2 667143869#3 667143869#4 -606061323#7 -606061323#6 -606061323#4 -606061323#2 -606061323#1 -606061323#0 610270522#1 -863336412#5 20437767#1" busStop="1722770104"/> <!-- Université Paris-Saclay -->
        <ride busStop="1732826814" lines="ANY" depart="1109.00"/> <!-- Gare du Guichet RER -->
        <walk edges="701943514 162031199#0 219752766 47463083#1 -47463097 47463103 119403143"/>
    </person>
    <person id="ped47" type="ped_pedestrian" depart="38.07">
        <walk edges="-15229946 -115229320#0 -115229320#1 115229320#2" busStop="1855952971"/> <!-- Bois des Rames -->
        <ride busStop="6414402745" lines="ANY" depart="151.00"/> <!-- Lieu de Vie -->
        <walk edges="475020758#5 -475020758#7 -174955283#0 174955283#2 174955283#3 174955283#5 174955283#6 174955283#7 174955283#8 417206210#0 417206210#1 417206210#2" busStop="6451425150"/> <!-- CentraleSupélec -->
        <ride busStop="-1345294971" lines="ANY" depart="784.00"/> <!-- Orme des Merisiers -->
        <ride busStop="-5905118364" lines="ANY" depart="1135.00"/> <!-- Raoul Dautry - CEA Porte Est -->
        <ride busStop="-1722769969" lines="ANY" depart="1975.00"/> <!-- Mairie de Saclay -->
        <walk edges="-482015497#3 -482015497#4 -22736379#0 -22736379#1 -22736379#2 -860371566#0 -860371566#1"/>
    </person>
    <person id="ped48" type="ped_pedestrian" depart="38.88">
        <walk edges="97050366#1 97050366#0 -97050352#0 -410000812 -410000816 747059915#2 747059915#1 867981794#0 720966392#4 -215654684#4 -215654684#3 -215654684#1 -219716162 -326551910#1 326551910#0 -326551909 -118741686#0 118741686#1 -326551906#0 -326551906#1 -326551906#2 -442773130 750440031 219716165"/>
    </person>
    <person id="ped49" type="ped_pedestrian" depart="39.69">
        <walk edges="886247756#3 261120353#0 832654537#2 832745421#3" busStop="1345294973"/> <!-- Orme des Merisiers -->
        <ride busStop="6551894424" lines="ANY" depart="768.00"/> <!-- Université Paris-Saclay -->
        <walk edges="863336412#4 -863336412#5 20437767#1" busStop="1722770104"/> <!-- Université Paris-Saclay -->
        <ride busStop="-6414402742" lines="ANY" depart="1284.00"/> <!-- Lieu de Vie -->
        <walk edges="-475020758#7 -647318805 684006411#1"/>
    </person>
    <person id="ped50" type="ped_pedestrian" depart="40.50">
        <walk edges="-119398509 -48515891#3 -48515891#2 -48515891#1 -160212545#0" busStop="-1341753267"/> <!-- La Martinière -->
        <ride busStop="6551894428" lines="ANY" depart="1180.00"/> <!-- Saint-Aubin -->
        <walk edges="436119957#2 -436119957#3 -293817953 832745424#2 307785395#1 23430346#16 -23430346#15 -23430346#14 -23430346#13 -23430346#12 -23430346#11 -46494695#3 -46494697#2 -46494697#1 46494696#2"/>
    </person>
    <person id="ped51" type="ped_pedestrian" depart="41.31">
        <walk edges="414494030 -414494035#1 832745415#0 -414507699 -414507700#0 -436119957#1" busStop="-5905124633"/> <!-- Mare du Vivier - CEA Porte Sud -->
        <ride busStop="-1722769930" lines="ANY" depart="1211.00"/> <!-- Martinière -->
        <walk edges="-22736355#1 22741127#0 22741127#1 -577283188 22736364#3 22736364#2 22736364#1 22736364#0"/>
    </person>
    <person id="ped52" type="ped_pedestrian" depart="42.12">
        <walk edges="-51750135 118793670#1 118793670#0 -410000812 -410000816 867981793 406513809#0" busStop="6938530459"/> <!-- Ferme de la Vauve -->
        <ride busStop="-6551894447" lines="ANY" depart="286.00"/> <!-- Palaiseau - Campus -->
        <walk edges="-219719294#8 -408197310#2 -408197310#3 -408197310#4 -408197310#5 -408197310#6 -671113562#0 -715087201 671113565#0 -671113563#0 -671166591 671116033#3 -174970470#3 334662053"/>
    </person>
    <person id="ped53" type="ped_pedestrian" depart="42.93">
        <walk edges="-22736382#1 -22736383 -22736355#6 884639569#0 821819201#2 -160212545#0" busStop="-1341753267"/> <!-- La Martinière -->
        <ride busStop="1722769927" lines="ANY" depart="303.00"/> <!-- Le Christ de Saclay -->
        <walk edges="541344750 96000893#2 807734260#1 741972943" busStop="6551894431@7886546"/> <!-- Christ de Saclay -->
        <ride busStop="6551894424" lines="ANY" depart="675.00"/> <!-- Université Paris-Saclay -->
        <ride busStop="-6551894423" lines="ANY" depart="1722.00"/> <!-- Corbeville -->
        <walk edges="-361585732#1 804749914#0 525187037#0 -392689403#0 -26824848#0 -26824848#1 -26824848#2 26824848#4 -96152251#0 -96152251#2 -96152251#3 -96152251#4 -96152251#5 96152253#1 -96152229#0 -121860445#1 -121860445#0 121860448 121860428 -121860441 121860441"/>
    </person>
    <person id="ped54" type="ped_pedestrian" depart="43.75">