<?xml version="1.0" encoding="UTF-8"?>

<!-- generated on 01/26/21 17:27:21 by Eclipse SUMO polyconvert Version 1.8.0
<configuration xmlns:xsi="http://www.w3.org/2001/XMLSchema-instance" xsi:noNamespaceSchemaLocation="http://sumo.dlr.de/xsd/polyconvertConfiguration.xsd">

    <input>
        <net-file value="osm.net.xml"/>
        <osm-files value="osm_bbox.osm.xml"/>
        <osm.keep-full-type value="true"/>
        <type-file value="C:\Program%20Files%20(x86)\Eclipse\Sumo\data\typemap\osmPolyconvert.typ.xml"/>
    </input>

    <output>
        <output-file value="osm.poly.xml"/>
    </output>

    <processing>
        <poi-layer-offset value="5"/>
    </processing>

    <report>
        <verbose value="true"/>
    </report>

</configuration>
-->

<additional xmlns:xsi="http://www.w3.org/2001/XMLSchema-instance" xsi:noNamespaceSchemaLocation="http://sumo.dlr.de/xsd/additional_file.xsd">
    <location netOffset="-437198.81,-5394016.58" convBoundary="-4982.89,-1329.86,7676.72,5765.83" origBoundary="2.077910,48.684351,2.250701,48.747366" projParameter="+proj=utm +zone=31 +ellps=WGS84 +datum=WGS84 +units=m +no_defs"/>

    <poly id="112136914" type="amenity.parking" color="184,184,179" fill="1" layer="-1.00" shape="3723.431873,814.801812 3738.975479,815.082846 3739.355430,839.992141 3730.426559,839.674812 3723.322910,839.393862 3723.431873,814.801812"/>
    <poly id="112136945" type="amenity.parking" color="184,184,179" fill="1" layer="-1.00" shape="3616.751826,941.059645 3626.787011,940.242300 3626.301896,951.453403 3616.064588,965.891269 3613.887546,965.980938 3616.751826,941.059645"/>
    <poly id="112515791" type="amenity.parking" color="184,184,179" fill="1" layer="-1.00" shape="3568.796998,473.160029 3532.103919,468.044548 3532.344147,465.707431 3533.847044,451.239399 3534.054006,449.236145 3577.764116,449.852991 3577.302927,467.511723 3575.495481,470.565754 3572.588275,472.608625 3568.796998,473.160029"/>
    <poly id="112515813" type="amenity.parking" color="184,184,179" fill="1" layer="-1.00" shape="3486.998238,260.198859 3495.928873,260.593620 3496.009973,253.644611 3496.106440,251.631407 3536.364174,252.006520 3536.270437,250.795753 3536.611476,241.976337 3488.730459,241.670674 3486.998238,260.198859"/>
    <poly id="112548197" type="leisure.pitch" color="207,245,201" fill="1" layer="-2.00" shape="3697.230981,495.740718 3707.767537,461.400380 3690.596013,456.167247 3680.059552,490.507618 3697.230981,495.740718"/>
    <poly id="112548197#1" type="sport.tennis" color="79,230,125" fill="1" layer="-2.00" shape="3697.230981,495.740718 3707.767537,461.400380 3690.596013,456.167247 3680.059552,490.507618 3697.230981,495.740718"/>
    <poly id="112548204" type="leisure.pitch" color="207,245,201" fill="1" layer="-2.00" shape="3725.160584,466.709052 3707.767537,461.400380 3697.230981,495.740718 3714.623816,501.038241 3725.160584,466.709052"/>
    <poly id="112548204#1" type="sport.tennis" color="79,230,125" fill="1" layer="-2.00" shape="3725.160584,466.709052 3707.767537,461.400380 3697.230981,495.740718 3714.623816,501.038241 3725.160584,466.709052"/>
    <poly id="112548206" type="leisure.pitch" color="207,245,201" fill="1" layer="-2.00" shape="3672.042234,455.239909 3655.003450,450.038837 3644.438816,484.479628 3661.470148,489.680746 3662.828992,485.252959 3672.042234,455.239909"/>
    <poly id="112548206#1" type="sport.tennis" color="79,230,125" fill="1" layer="-2.00" shape="3672.042234,455.239909 3655.003450,450.038837 3644.438816,484.479628 3661.470148,489.680746 3662.828992,485.252959 3672.042234,455.239909"/>
    <poly id="112548209" type="leisure.pitch" color="207,245,201" fill="1" layer="-2.00" shape="3731.773106,506.271678 3742.309850,471.931407 3725.160584,466.709052 3714.623816,501.038241 3731.773106,506.271678"/>
    <poly id="112548209#1" type="sport.tennis" color="79,230,125" fill="1" layer="-2.00" shape="3731.773106,506.271678 3742.309850,471.931407 3725.160584,466.709052 3714.623816,501.038241 3731.773106,506.271678"/>
    <poly id="112548211" type="leisure.pitch" color="207,245,201" fill="1" layer="-2.00" shape="3751.279215,518.695323 3766.767408,523.423846 3776.450851,491.894112 3760.955223,487.165638 3752.993965,513.118758 3751.279215,518.695323"/>
    <poly id="112548211#1" type="sport.skateboard" color="79,230,125" fill="1" layer="-2.00" shape="3751.279215,518.695323 3766.767408,523.423846 3776.450851,491.894112 3760.955223,487.165638 3752.993965,513.118758 3751.279215,518.695323"/>
    <poly id="112548212" type="leisure.pitch" color="207,245,201" fill="1" layer="-2.00" shape="3690.596013,456.167247 3673.365359,450.912555 3672.042234,455.239909 3662.828992,485.252959 3680.059552,490.507618 3690.596013,456.167247"/>
    <poly id="112548212#1" type="sport.tennis" color="79,230,125" fill="1" layer="-2.00" shape="3690.596013,456.167247 3673.365359,450.912555 3672.042234,455.239909 3662.828992,485.252959 3680.059552,490.507618 3690.596013,456.167247"/>
    <poly id="117567229" type="landuse.allotments" color="194,194,130" fill="1" layer="-3.00" shape="1929.501999,791.121757 1935.818834,790.074921 1934.827516,784.160255 1928.510795,785.218208 1929.501999,791.121757"/>
    <poly id="117567230" type="landuse.allotments" color="194,194,130" fill="1" layer="-3.00" shape="1923.618655,792.108311 1929.501999,791.121757 1928.510795,785.218208 1922.627324,786.193647 1923.618655,792.108311"/>
    <poly id="117567236" type="amenity.parking" color="184,184,179" fill="1" layer="-1.00" shape="1925.344628,837.247290 1886.618631,844.771446 1888.753197,855.676394 1909.232242,851.696510 1908.266115,846.748763 1911.893444,846.042369 1912.898767,851.212033 1927.518320,848.374169 1925.344628,837.247290"/>
    <poly id="117567239" type="landuse.allotments" color="194,194,130" fill="1" layer="-3.00" shape="1927.094665,776.773451 1921.218543,777.748812 1922.327959,784.373689 1928.211431,783.398250 1927.094665,776.773451"/>
    <poly id="117567242" type="landuse.allotments" color="194,194,130" fill="1" layer="-3.00" shape="1905.265430,787.226961 1910.818291,786.299560 1909.701505,779.674764 1904.155995,780.602086 1905.265430,787.226961"/>
    <poly id="117567246" type="landuse.allotments" color="194,194,130" fill="1" layer="-3.00" shape="1906.563387,794.950383 1912.108883,794.023063 1911.117661,788.119517 1905.572038,789.035722 1906.563387,794.950383"/>
    <poly id="117567248" type="landuse.allotments" color="194,194,130" fill="1" layer="-3.00" shape="1895.758737,796.746345 1901.076631,795.865954 1900.085277,789.951293 1894.767498,790.842802 1895.758737,796.746345"/>
    <poly id="117567252" type="landuse.allotments" color="194,194,130" fill="1" layer="-3.00" shape="1899.778667,788.142532 1905.265430,787.226961 1904.155995,780.602086 1898.669105,781.506543 1899.778667,788.142532"/>
    <poly id="117567254" type="landuse.allotments" color="194,194,130" fill="1" layer="-3.00" shape="1928.211431,783.398250 1934.528154,782.340297 1933.418753,775.715417 1927.094665,776.773451 1928.211431,783.398250"/>
    <poly id="117567257" type="landuse.allotments" color="194,194,130" fill="1" layer="-3.00" shape="1901.076631,795.865954 1906.563387,794.950383 1905.572038,789.035722 1900.085277,789.951293 1901.076631,795.865954"/>
    <poly id="117567260" type="landuse.allotments" color="194,194,130" fill="1" layer="-3.00" shape="1912.108883,794.023063 1917.375279,793.143246 1916.384062,787.239699 1911.117661,788.119517 1912.108883,794.023063"/>
    <poly id="117567262" type="landuse.allotments" color="194,194,130" fill="1" layer="-3.00" shape="1910.818291,786.299560 1916.077337,785.419821 1914.967914,778.794945 1909.701505,779.674764 1910.818291,786.299560"/>
    <poly id="117567265" type="landuse.allotments" color="194,194,130" fill="1" layer="-3.00" shape="1894.468124,789.022845 1899.778667,788.142532 1898.669105,781.506543 1893.351319,782.398053 1894.468124,789.022845"/>
    <poly id="117567269" type="amenity.parking" color="184,184,179" fill="1" layer="-1.00" shape="1925.052623,835.427252 1924.054425,830.235275 1923.828274,829.059315 1931.678068,827.562273 1938.749545,826.218208 1966.117367,820.996513 1965.228236,816.359202 1946.180595,820.034308 1942.184890,820.700207 1937.824207,821.636879 1930.820630,823.135848 1922.113988,825.009053 1897.795939,829.186199 1892.971751,830.127938 1887.692126,831.141328 1888.550201,835.623325 1888.690479,836.344415 1888.932317,837.609140 1889.798351,842.146637 1925.052623,835.427252"/>
    <poly id="117694370" type="amenity.parking" color="184,184,179" fill="1" layer="-1.00" shape="2109.589635,789.004056 2108.445458,782.546278 2105.968612,768.532170 2104.636302,761.009186 2107.074675,760.582593 2112.942884,759.551928 2115.059027,771.513276 2117.888818,787.546884 2112.130760,788.554119 2109.589635,789.004056"/>
    <poly id="122711660" type="leisure.pitch" color="207,245,201" fill="1" layer="-2.00" shape="874.592929,228.676644 933.628532,133.274105 991.237032,168.703280 932.193617,264.116410 874.592929,228.676644"/>
    <poly id="122711660#1" type="sport.soccer" color="79,230,125" fill="1" layer="-2.00" shape="874.592929,228.676644 933.628532,133.274105 991.237032,168.703280 932.193617,264.116410 874.592929,228.676644"/>
    <poly id="122715610" type="leisure.pitch" color="207,245,201" fill="1" layer="-2.00" shape="938.631536,533.002445 996.228434,543.696100 1003.152373,544.976130 1022.596153,440.894576 958.066815,428.920741 938.631536,533.002445"/>
    <poly id="122715610#1" type="sport.soccer" color="79,230,125" fill="1" layer="-2.00" shape="938.631536,533.002445 996.228434,543.696100 1003.152373,544.976130 1022.596153,440.894576 958.066815,428.920741 938.631536,533.002445"/>
    <poly id="129535905" type="landuse.grass" color="194,194,130" fill="1" layer="-3.00" shape="1907.118205,2203.572962 1943.914475,2158.060208 1954.443737,2154.855396 1960.545836,2148.396842 1949.320660,2151.876004 1938.940787,2151.899703 1929.532217,2149.911795 1925.054388,2148.770865 1918.761840,2144.459022 1913.918838,2139.497771 1910.523821,2134.420749 1908.108325,2130.122409 1905.131333,2121.538953 1903.804607,2117.918056 1905.139396,2131.766631 1907.275241,2146.896095 1908.298335,2151.687590 1908.600810,2156.509142 1909.964723,2166.266296 1909.805996,2187.557336 1907.118205,2203.572962"/>
    <poly id="129535908" type="landuse.grass" color="194,194,130" fill="1" layer="-3.00" shape="1917.837640,2046.449279 1914.631269,2038.424165 1913.236479,2029.890232 1913.709235,2021.258204 1916.031943,2012.939606 1920.090897,2005.302542 1925.706188,1998.715833 1932.609025,1993.493680 1940.478159,1989.861918 1948.940363,1988.002472 1957.614085,1988.008423 1966.079909,1989.873204 1973.939522,1993.501078 1980.838026,1998.729136 1986.449226,2005.327450 1990.504697,2012.965413 1992.824044,2021.289231 1993.285482,2029.922238 1991.884441,2038.442034 1988.668321,2046.470123 1983.802215,2053.626736 1977.510422,2059.564813 1970.077044,2064.025584 1961.867459,2066.782747 1953.248124,2067.710041 1944.630595,2066.769650 1936.420038,2064.012763 1928.992919,2059.557580 1922.704607,2053.611466 1917.837640,2046.449279"/>
    <poly id="129628613" type="leisure.playground" color="207,245,201" fill="1" layer="-2.00" shape="3532.780015,1091.392674 3468.861014,1087.832718 3466.391779,1080.465990 3464.084950,1071.063122 3494.533223,1066.994712 3496.673876,1071.819119 3508.900411,1070.900575 3509.669956,1068.524509 3533.134656,1069.243751 3532.780015,1091.392674"/>
    <poly id="129628614" type="leisure.pitch" color="207,245,201" fill="1" layer="-2.00" shape="3490.522142,1136.496494 3491.992910,1109.277503 3525.976127,1111.097280 3524.505196,1138.316261 3490.522142,1136.496494"/>
    <poly id="129628614#1" type="sport.soccer;basketball" color="79,230,125" fill="1" layer="-2.00" shape="3490.522142,1136.496494 3491.992910,1109.277503 3525.976127,1111.097280 3524.505196,1138.316261 3490.522142,1136.496494"/>
    <poly id="129629723" type="building.yes" color="255,230,230" fill="1" layer="-1.00" shape="3334.009447,948.018253 3331.549209,945.687514 3333.805105,943.317902 3336.272818,945.659680 3334.009447,948.018253"/>
    <poly id="129629731" type="building.yes" color="255,230,230" fill="1" layer="-1.00" shape="3321.229705,964.795968 3318.869356,962.864390 3321.063317,960.206386 3323.423784,962.149081 3321.229705,964.795968"/>
    <poly id="133392420" type="building.yes" color="255,230,230" fill="1" layer="-1.00" shape="1569.243651,1788.757998 1598.144994,1787.664356 1598.350339,1792.998344 1603.938615,1792.715025 1603.808050,1787.491393 1629.619801,1786.431625 1629.825116,1791.765613 1635.929539,1791.587869 1635.724230,1786.253881 1661.324115,1785.329975 1664.878544,1802.967481 1634.741195,1804.052025 1633.858939,1804.106115 1633.734005,1804.118595 1632.829802,1804.184041 1602.823903,1805.178386 1600.986073,1805.309610 1579.475101,1806.077989 1573.996212,1806.271201 1572.617496,1801.283538 1571.559265,1797.348504 1569.243651,1788.757998"/>
    <poly id="133501725" type="building.university" color="255,230,230" fill="1" layer="-1.00" shape="1566.051010,1826.524436 1565.009819,1795.174343 1564.802939,1789.028822 1494.774417,1791.361334 1495.203175,1809.722172 1496.030312,1828.856856 1566.051010,1826.524436"/>
    <poly id="133501726" type="landuse.orchard" color="194,194,130" fill="1" layer="-3.00" shape="1820.336197,664.104640 1814.999039,633.434949 1809.975482,605.218736 1806.806719,587.198992 1796.672897,529.577999 1871.870172,547.748970 1911.957487,555.629410 1931.963719,556.123839 1970.443188,547.390947 1972.915380,562.294418 1983.371976,625.426282 1983.773485,627.845459 1978.591588,640.608481 1882.387572,659.072678 1881.404868,653.958360 1877.548847,654.622786 1870.239789,655.791630 1830.566338,662.236960 1822.589564,663.579880 1820.336197,664.104640"/>
    <poly id="134230446" type="building.university" color="255,230,230" fill="1" layer="-1.00" shape="1667.214790,1833.714258 1605.130300,1837.203941 1588.091931,1837.245345 1588.217217,1835.242892 1588.416064,1833.239637 1588.541350,1831.237184 1588.960881,1829.231519 1589.233291,1827.227461 1589.644331,1824.443689 1591.512044,1820.309964 1593.406448,1818.621719 1595.380479,1817.488463 1597.436563,1817.132512 1599.425150,1817.333156 1601.410099,1817.200325 1603.249138,1817.180259 1604.424909,1817.056259 1606.405007,1816.478798 1608.385105,1815.901337 1610.288004,1814.991205 1612.259614,1813.635639 1614.232438,1812.391231 1617.237551,1811.357907 1619.227352,1811.669715 1621.222003,1812.426158 1623.293852,1813.515273 1625.288502,1814.271716 1627.355500,1814.916200 1629.347724,1815.450329 1631.411085,1815.761340 1633.252548,1815.963600 1634.098991,1815.998837 1635.166361,1816.053900 1636.416907,1816.040263 1637.886926,1815.913061 1638.621329,1815.793881 1640.384383,1815.552313 1642.368120,1815.308339 1644.349434,1814.842049 1646.329537,1814.264602 1648.309639,1813.687155 1650.286107,1812.776235 1652.190225,1811.977276 1654.245103,1811.510188 1656.231266,1811.488535 1657.188779,1811.589268 1659.255774,1812.233764 1661.252843,1813.212537 1663.330742,1814.857457 1664.226809,1816.070575 1665.348406,1817.725921 1666.401288,1819.826701 1667.082727,1821.598016 1667.545904,1823.594052 1667.494151,1825.595701 1667.515960,1827.596549 1667.317084,1829.599802 1667.265331,1831.601451 1667.214790,1833.714258"/>
    <poly id="134230465" type="amenity.parking" color="184,184,179" fill="1" layer="-1.00" shape="1514.509932,1708.222878 1522.013708,1700.092081 1522.372816,1696.597375 1525.872235,1696.359037 1526.255576,1686.327186 1513.624763,1686.465184 1513.683226,1678.349031 1529.502599,1676.453045 1544.989879,1676.483997 1546.642968,1687.727608 1549.205955,1687.299402 1550.464004,1694.033768 1566.267370,1691.348744 1566.756880,1695.078759 1584.825953,1691.690907 1584.236940,1687.606227 1613.270977,1682.442353 1620.975748,1695.420947 1629.410927,1729.503031 1520.501961,1732.092618 1518.020416,1726.505573 1514.509932,1708.222878"/>
    <poly id="134230468" type="amenity.parking" color="184,184,179" fill="1" layer="-1.00" shape="1622.895247,1870.050284 1625.086514,1867.925243 1626.839529,1865.415883 1628.067111,1862.623208 1628.739713,1859.536424 1628.795253,1856.534190 1628.239266,1853.449689 1627.179707,1850.737546 1625.569894,1848.164810 1623.493168,1845.952916 1620.809278,1844.058926 1618.177283,1842.875868 1615.654335,1842.247479 1612.267973,1842.050961 1609.051085,1842.552977 1606.412099,1843.426672 1603.810543,1845.033691 1600.433207,1848.361217 1598.706875,1851.292745 1597.662116,1853.983377 1597.339954,1856.821764 1597.445780,1859.777769 1598.125382,1862.727513 1599.302165,1865.393903 1601.222518,1868.107766 1603.274387,1870.064229 1622.895247,1870.050284"/>
    <poly id="134230469" type="building.yes" color="255,230,230" fill="1" layer="-1.00" shape="1632.829802,1804.184041 1633.734005,1804.118595 1633.858939,1804.106115 1634.741195,1804.052025 1635.166361,1816.053900 1634.098991,1815.998837 1633.252548,1815.963600 1632.829802,1804.184041"/>
    <poly id="134230470" type="building.yes" color="255,230,230" fill="1" layer="-1.00" shape="1600.986073,1805.309610 1602.823903,1805.178386 1603.249138,1817.180259 1601.410099,1817.200325 1600.986073,1805.309610"/>
    <poly id="134230472" type="amenity.parking" color="184,184,179" fill="1" layer="-1.00" shape="1661.886403,1865.934225 1664.321543,1861.883275 1665.244152,1858.782654 1665.505197,1855.733712 1665.170277,1852.680149 1664.233246,1849.733204 1662.724739,1847.003714 1660.816612,1844.734383 1658.485949,1842.847641 1655.977077,1841.485349 1653.009372,1840.550512 1649.790747,1840.218738 1646.902336,1840.483690 1644.093183,1841.270286 1641.261636,1842.701921 1638.992914,1844.472051 1636.921997,1846.840351 1635.341193,1849.625758 1634.387356,1852.559969 1634.024676,1855.732309 1634.293650,1858.808824 1635.126862,1861.679077 1636.614765,1864.542190 1638.241061,1866.603361 1640.625396,1868.689617 1650.719569,1867.378902 1661.886403,1865.934225"/>
    <poly id="134273802" type="amenity.university" color="237,199,199" fill="1" layer="-1.00" shape="976.451235,1512.807091 918.995885,1512.050997 725.594811,1513.787708 716.798753,1227.573517 681.408070,1218.982628 681.311135,1194.281358 680.984013,1107.593326 934.858008,1182.430142 941.941475,1269.643943 954.218672,1328.107111 969.289492,1368.362960 976.294171,1387.073752 976.396809,1468.483575 976.451235,1512.807091"/>
    <poly id="134273806" type="amenity.parking" color="184,184,179" fill="1" layer="-1.00" shape="1018.411853,1427.398566 1016.500896,1454.300901 980.790089,1465.222296 981.496266,1408.461419 1015.538243,1425.684823 1018.411853,1427.398566"/>
    <poly id="135696439" type="leisure.pitch" color="207,245,201" fill="1" layer="-2.00" shape="2312.631017,1314.695808 2313.445432,1318.578013 2331.342848,1314.816468 2323.829906,1279.256020 2305.939618,1283.006393 2312.631017,1314.695808"/>
    <poly id="135696439#1" type="sport.soccer" color="79,230,125" fill="1" layer="-2.00" shape="2312.631017,1314.695808 2313.445432,1318.578013 2331.342848,1314.816468 2323.829906,1279.256020 2305.939618,1283.006393 2312.631017,1314.695808"/>
    <poly id="135696441" type="building.yes" color="255,230,230" fill="1" layer="-1.00" shape="2244.166390,1498.566623 2245.808981,1498.059738 2245.309084,1496.052937 2247.325660,1495.430844 2246.826124,1493.457390 2248.768416,1492.769396 2248.291309,1490.829052 2250.205136,1490.230303 2249.749859,1488.267489 2251.766199,1487.623165 2251.191898,1485.539348 2253.187249,1484.995305 2252.779472,1483.343257 2253.182802,1482.538472 2252.309085,1482.025399 2251.908665,1480.373271 2249.891602,1480.950900 2249.288593,1478.934095 2247.227631,1479.534433 2246.654408,1477.550658 2244.585009,1478.051033 2244.055323,1476.011203 2242.015470,1476.522378 2241.420055,1474.527726 2239.350655,1475.028104 2238.755358,1473.044568 2237.002892,1473.597110 2236.299335,1473.171139 2235.895406,1473.920347 2234.237976,1474.416278 2234.818081,1476.355509 2232.677157,1477.045652 2233.275491,1478.628939 2231.513971,1481.749633 2230.062184,1484.255543 2228.309962,1484.830319 2228.810706,1486.914929 2226.800885,1487.481371 2227.349764,1489.254182 2226.894102,1489.981715 2227.693534,1490.428883 2228.174043,1492.002324 2230.162513,1491.502816 2230.764688,1493.441809 2232.849033,1492.963501 2233.377881,1494.925519 2235.447273,1494.425139 2235.998669,1496.431383 2238.061304,1495.986663 2238.611979,1497.926212 2240.680530,1497.348023 2241.231685,1499.332036 2242.978467,1498.935195 2243.660431,1499.405869 2244.166390,1498.566623"/>
    <poly id="135696442" type="leisure.pitch" color="207,245,201" fill="1" layer="-2.00" shape="2294.009384,1314.752111 2294.784870,1318.434626 2312.631017,1314.695808 2305.939618,1283.006393 2305.110120,1279.091000 2287.271341,1282.840877 2294.009384,1314.752111"/>
    <poly id="135696442#1" type="sport.soccer" color="79,230,125" fill="1" layer="-2.00" shape="2294.009384,1314.752111 2294.784870,1318.434626 2312.631017,1314.695808 2305.939618,1283.006393 2305.110120,1279.091000 2287.271341,1282.840877 2294.009384,1314.752111"/>
    <poly id="135702203" type="building.yes" color="255,230,230" fill="1" layer="-1.00" shape="3210.525592,1043.601211 3201.959968,1041.435436 3203.129570,1035.864477 3188.449487,1032.318462 3187.097623,1038.047000 3179.701500,1036.535856 3180.613245,1033.013173 3171.919567,1030.570877 3169.714752,1039.121104 3171.958062,1039.730933 3171.111680,1043.864361 3175.753977,1045.193537 3173.732029,1053.641765 3184.382314,1056.029919 3186.422957,1046.569843 3187.944927,1039.538801 3196.109731,1041.375301 3194.887776,1047.558256 3199.585615,1048.575584 3200.034471,1047.192299 3206.512230,1048.835513 3210.525592,1043.601211"/>
    <poly id="135702204" type="building.yes" color="255,230,230" fill="1" layer="-1.00" shape="2928.235324,1116.577664 2926.287847,1113.352262 2922.095272,1112.107429 2919.045411,1113.829779 2918.405582,1115.926619 2917.810608,1118.089683 2919.069493,1120.911101 2923.816332,1122.383475 2926.798789,1120.550676 2928.235324,1116.577664"/>
    <poly id="135935400" type="amenity.parking" color="184,184,179" fill="1" layer="-1.00" shape="2556.571136,647.013028 2577.919898,644.427023 2597.096253,641.686536 2596.327737,635.213522 2595.359868,633.478526 2594.669721,632.251935 2591.850699,628.758069 2579.281514,633.484315 2567.565006,638.123617 2555.299078,642.991185 2556.571136,647.013028"/>
    <poly id="135935401" type="leisure.pitch" color="207,245,201" fill="1" layer="-2.00" shape="2419.585487,494.591675 2436.817183,490.259598 2427.794274,454.593006 2410.562593,458.936225 2419.585487,494.591675"/>
    <poly id="135935401#1" type="sport.tennis" color="79,230,125" fill="1" layer="-2.00" shape="2419.585487,494.591675 2436.817183,490.259598 2427.794274,454.593006 2410.562593,458.936225 2419.585487,494.591675"/>
    <poly id="135935403" type="amenity.parking" color="184,184,179" fill="1" layer="-1.00" shape="2678.360734,614.612210 2671.034498,615.568967 2660.996723,616.877191 2616.768012,623.388002 2619.089665,638.826961 2655.533278,633.722545 2658.281268,653.248034 2665.553832,652.780986 2682.595425,650.652876 2678.360734,614.612210"/>
    <poly id="136072332" type="building.university" color="255,230,230" fill="1" layer="-1.00" shape="2364.759006,811.896765 2366.206825,819.929946 2463.575742,802.495378 2460.985724,788.137716 2394.006733,800.131183 2380.287741,802.580145 2377.034365,803.171036 2363.623922,805.572248 2364.759006,811.896765"/>
    <poly id="136072339" type="amenity.parking" color="184,184,179" fill="1" layer="-1.00" shape="2572.137559,700.774889 2573.393919,698.537986 2575.796914,694.810202 2584.122594,693.742539 2617.777838,699.695943 2654.703110,694.942094 2655.205934,700.662001 2655.176475,702.718977 2654.902815,705.334424 2655.352883,709.565208 2610.159755,715.964136 2598.935888,707.524400 2595.345342,706.873668 2593.436661,707.294364 2592.760754,708.079813 2596.821500,711.404716 2598.378439,724.150422 2591.578521,726.824787 2585.530388,733.726701 2582.484213,714.549071 2587.330805,709.505485 2586.809057,706.142608 2582.018267,703.359167 2574.862221,702.335385 2572.137559,700.774889"/>
    <poly id="136072341" type="building.yes" color="255,230,230" fill="1" layer="-1.00" shape="2208.296558,400.095029 2213.366945,400.106982 2213.382111,394.014651 2208.311719,394.002698 2208.296558,400.095029"/>
    <poly id="136072342" type="building.yes" color="255,230,230" fill="1" layer="-1.00" shape="2415.508452,724.303497 2415.420819,726.416688 2445.883208,727.645311 2445.970852,725.532121 2441.229942,725.338545 2434.538197,725.065909 2427.338540,724.776511 2420.094736,724.487598 2415.508452,724.303497"/>
    <poly id="136094878" type="building.yes" color="255,230,230" fill="1" layer="-1.00" shape="3161.187003,559.421469 3161.424198,545.044589 3163.770747,544.964063 3163.736945,544.553091 3167.954740,544.675019 3169.492606,545.359050 3170.381483,545.216199 3171.572350,545.792748 3171.909678,547.067625 3169.436480,552.541268 3171.817621,553.638785 3171.194976,555.290727 3167.666330,562.543200 3161.187003,559.421469"/>
    <poly id="136125080" type="amenity.place_of_worship" color="237,199,199" fill="1" layer="-1.00" shape="3077.955027,254.643175 3080.256909,255.886021 3082.275086,258.821681 3082.410229,263.222598 3080.651389,266.676487 3077.924915,267.717156 3077.816010,269.930610 3074.070822,269.981588 3073.941123,273.006808 3073.870549,275.364376 3071.013808,275.228027 3060.660898,274.648977 3058.875531,272.844786 3057.514863,272.914858 3057.439687,270.692247 3054.701384,270.621347 3053.759183,270.598028 3043.549974,270.384342 3040.046302,270.310484 3038.946458,267.231654 3039.027080,265.818929 3039.285319,261.736218 3039.415099,259.411370 3039.694704,255.261729 3039.750628,254.293949 3043.607502,254.364047 3046.853410,254.418419 3050.217522,254.516002 3050.555054,250.276808 3053.661395,250.354904 3053.821895,248.841275 3071.075420,249.213454 3071.172942,246.622141 3078.135216,246.681443 3078.074010,249.227901 3077.955027,254.643175"/>
    <poly id="136125080#1" type="building.church" color="255,230,230" fill="1" layer="-1.00" shape="3077.955027,254.643175 3080.256909,255.886021 3082.275086,258.821681 3082.410229,263.222598 3080.651389,266.676487 3077.924915,267.717156 3077.816010,269.930610 3074.070822,269.981588 3073.941123,273.006808 3073.870549,275.364376 3071.013808,275.228027 3060.660898,274.648977 3058.875531,272.844786 3057.514863,272.914858 3057.439687,270.692247 3054.701384,270.621347 3053.759183,270.598028 3043.549974,270.384342 3040.046302,270.310484 3038.946458,267.231654 3039.027080,265.818929 3039.285319,261.736218 3039.415099,259.411370 3039.694704,255.261729 3039.750628,254.293949 3043.607502,254.364047 3046.853410,254.418419 3050.217522,254.516002 3050.555054,250.276808 3053.661395,250.354904 3053.821895,248.841275 3071.075420,249.213454 3071.172942,246.622141 3078.135216,246.681443 3078.074010,249.227901 3077.955027,254.643175"/>
    <poly id="136125088" type="building.hospital" color="255,230,230" fill="1" layer="-1.00" shape="2957.718908,257.680616 2958.211562,247.292026 2956.039590,247.192901 2955.546821,257.570376 2957.718908,257.680616"/>
    <poly id="136125094" type="leisure.pitch" color="207,245,201" fill="1" layer="-2.00" shape="3267.060370,400.368248 3311.412487,401.109621 3311.575555,391.502759 3311.895633,372.411388 3267.543290,371.670009 3267.060370,400.368248"/>
    <poly id="138758144" type="amenity.hospital" color="237,199,199" fill="1" layer="-1.00" shape="2974.976136,404.730994 2986.575186,404.184892 2991.783508,401.261173 2989.931522,395.966956 2989.684634,350.712022 2989.841609,306.064225 2992.142212,305.806245 2999.002235,299.729920 3002.171239,292.570112 3002.944255,289.838194 2996.749411,289.970914 2995.506976,263.847943 2993.742330,263.299780 2988.742848,260.974016 2988.599100,255.772763 2993.760280,242.888665 2995.176859,242.540055 2995.144609,240.895074 2995.049638,236.126867 2992.086423,235.669298 2952.930789,233.774410 2939.953281,232.756657 2939.399735,234.674697 2892.701430,223.855873 2863.687310,217.217530 2845.425903,212.065300 2832.236377,213.251239 2829.151044,215.830019 2825.895219,223.113143 2828.254760,226.990016 2847.151728,239.972932 2869.212408,257.035434 2898.574602,286.649060 2916.348329,310.260991 2928.552188,334.655012 2947.450523,353.341296 2969.940975,399.048275 2974.976136,404.730994"/>
    <poly id="138758148" type="amenity.school" color="237,199,199" fill="1" layer="-1.00" shape="3144.782441,379.254919 3144.797978,382.100720 3144.665043,390.362108 3151.877900,390.474419 3151.096588,438.119320 3151.078501,439.186750 3072.076793,438.003825 3072.257561,433.555076 3072.574017,420.422458 3068.857413,420.384201 3068.997486,407.964952 3069.541977,407.959156 3069.683246,399.108472 3069.011301,398.893283 3069.366936,377.689263 3070.845071,377.595709 3070.725226,373.250214 3069.398663,368.917564 3079.592503,369.086989 3131.033929,369.362398 3130.786447,378.614422 3144.782441,379.254919"/>
    <poly id="138758149" type="amenity.parking" color="184,184,179" fill="1" layer="-1.00" shape="2995.176859,242.540055 2998.814363,245.502896 3003.445632,245.731469 3007.413671,247.945950 3011.599920,251.992424 3013.420365,257.086876 3016.670211,256.129535 3018.235412,259.370159 3018.891480,264.310262 3018.592999,269.449523 3028.939873,298.477118 3024.101082,298.106214 3019.998135,296.348958 3017.662070,295.351076 3012.604724,292.425586 3011.853811,288.253571 3005.048210,289.771305 3002.944255,289.838194 2996.749411,289.970914 2995.506976,263.847943 2993.742330,263.299780 2988.742848,260.974016 2988.599100,255.772763 2993.760280,242.888665 2995.176859,242.540055"/>