<?xml version="1.0" encoding="UTF-8"?>

<!-- generated on 01/26/21 17:27:19 by Eclipse SUMO netconvert Version 1.8.0
<configuration xmlns:xsi="http://www.w3.org/2001/XMLSchema-instance" xsi:noNamespaceSchemaLocation="http://sumo.dlr.de/xsd/netconvertConfiguration.xsd">

    <input>
        <type-files value="C:\Program%20Files%20(x86)\Eclipse\Sumo\data\typemap\osmNetconvert.typ.xml"/>
        <osm-files value="osm_bbox.osm.xml"/>
    </input>

    <output>
        <output-file value="osm.net.xml"/>
        <output.street-names value="true"/>
        <output.original-names value="true"/>
        <ptstop-output value="osm_stops.add.xml"/>
        <ptline-output value="osm_ptlines.xml"/>
    </output>

    <projection>
        <proj.utm value="true"/>
    </projection>

    <processing>
        <geometry.remove value="true"/>
        <roundabouts.guess value="true"/>
    </processing>

    <tls_building>
        <tls.discard-simple value="true"/>
        <tls.join value="true"/>
        <tls.guess-signals value="true"/>
        <tls.default-type value="actuated"/>
    </tls_building>

    <ramp_guessing>
        <ramps.guess value="true"/>
    </ramp_guessing>

    <junctions>
        <junctions.join value="true"/>
        <junctions.corner-detail value="5"/>
    </junctions>

    <railway>
        <railway.topology.repair value="true"/>
        <railway.topology.repair.stop-turn value="true"/>
    </railway>

    <report>
        <verbose value="true"/>
        <aggregate-warnings value="5"/>
    </report>

</configuration>
-->

<additional xmlns:xsi="http://www.w3.org/2001/XMLSchema-instance" xsi:noNamespaceSchemaLocation="http://sumo.dlr.de/xsd/additional_file.xsd">
    <busStop id="-1341778473" name="Gare du Guichet RER" lane="-701943514_0" startPos="74.88" endPos="83.11" friendlyPos="true" lines="9"/>
    <busStop id="-1420982413" name="Versailles" lane="-527943457#1_0" startPos="13.10" endPos="28.10" friendlyPos="true" lines="9"/>
    <busStop id="-1429827411" name="Aristide Briand" lane="-380969252_0" startPos="24.67" endPos="39.67" friendlyPos="true" lines="8"/>
    <busStop id="-1855952972" name="De Broglie" lane="-475020758#2_0" startPos="58.54" endPos="73.54" friendlyPos="true" lines="7"/>
    <busStop id="-3980845786" name="Joliot-Curie" lane="-832745421#4_0" startPos="0.00" endPos="7.50" friendlyPos="true" lines="9 91-06 91-10"/>
    <busStop id="-4096918910" name="Université Paris-Saclay" lane="-863336412#4_0" startPos="18.06" endPos="33.06" friendlyPos="true" lines="9 91-06 91-10"/>
    <busStop id="-5444780495" name="Bures - Amphi" lane="-153002660#3_0" startPos="22.53" endPos="37.53" friendlyPos="true" lines="6"/>
    <busStop id="-5444780498" name="Château" lane="-67096966#1_0" startPos="0.00" endPos="8.50" friendlyPos="true" lines="7 6"/>
    <busStop id="-5444780500" name="Bibliothèque" lane="-42294993#0_0" startPos="61.02" endPos="76.02" friendlyPos="true" lines="6"/>
    <busStop id="-5444780502" name="Verger" lane="-297105558#9_0" startPos="32.14" endPos="47.14" friendlyPos="true" lines="6"/>
    <busStop id="-5444780505" name="L&apos;Isles" lane="-90075240_0" startPos="19.18" endPos="34.18" friendlyPos="true" lines="6"/>
    <busStop id="-5444780507" name="Georges Poitou" lane="-369007492#1_0" startPos="10.10" endPos="25.10" friendlyPos="true" lines="6"/>
    <busStop id="-5762436116" name="Bures-sur-Yvette RER - Université" lane="-370956704#8_0" startPos="14.67" endPos="29.67" friendlyPos="true" lines="4 20"/>
    <busStop id="-5836393504" name="Le Guichet (voie 1)" lane="-23795604_0" startPos="0.00" endPos="123.07" friendlyPos="true">
        <access lane="129629730#0_0" pos="0.00" length="10.44" friendlyPos="1"/>
        <access lane="233525260_0" pos="0.00" length="9.18" friendlyPos="1"/>
        <access lane="42294640_0" pos="0.00" length="3.66" friendlyPos="1"/>
        <access lane="42294641_0" pos="0.00" length="10.68" friendlyPos="1"/>
        <access lane="43675752_0" pos="0.00" length="8.66" friendlyPos="1"/>
    </busStop>
    <busStop id="-604035097" name="Charles de Gaulle" lane="-14464658#2_0" startPos="61.71" endPos="76.71" friendlyPos="true" lines="8 9"/>
    <busStop id="-635550116" name="Lozère (voie 1)" lane="-30037881_0" startPos="958.77" endPos="1158.77" friendlyPos="true"/>
    <busStop id="-6414402742" name="Lieu de Vie" lane="-475020758#7_0" startPos="20.22" endPos="35.22" friendlyPos="true" lines="7 11"/>
    <busStop id="-6414402744" name="Université Paris-Saclay" lane="-20437767#1_0" startPos="49.13" endPos="64.13" friendlyPos="true" lines="7 91-08"/>
    <busStop id="-6414402747" name="Launay" lane="-67144889#1_0" startPos="5.58" endPos="20.58" friendlyPos="true" lines="7"/>
    <busStop id="-6451425151" name="CentraleSupélec" lane="-417206210#2_0" startPos="26.42" endPos="36.24" friendlyPos="true" lines="11"/>
    <busStop id="-6451425152" name="Joliot Curie" lane="-20437797#4_0" startPos="4.34" endPos="19.34" friendlyPos="true" lines="11"/>
    <busStop id="-6551894423" name="Corbeville" lane="-361585732#1_0" startPos="28.19" endPos="41.59" friendlyPos="true" lines="91-06 91-08 91-10"/>
    <busStop id="-6551894444" name="Moulon TCSP" lane="-863336412#1_0" startPos="22.60" endPos="37.60" friendlyPos="true" lines="9 91-06 91-10"/>
    <busStop id="-6552378817" name="Mûriers" lane="-219752764#1_0" startPos="38.30" endPos="53.30" friendlyPos="true" lines="9"/>
    <busStop id="-6552378820" name="Joliot-Curie" lane="-720845271_0" startPos="0.00" endPos="7.50" friendlyPos="true" lines="91-06 91-10 9"/>
    <busStop id="-6558738846" name="École du Guichet" lane="-47463290#0_0" startPos="44.31" endPos="59.31" friendlyPos="true" lines="8"/>
    <busStop id="-677507133" name="Bois des Rames" lane="-115229320#1_0" startPos="0.00" endPos="8.22" friendlyPos="true" lines="7"/>
    <busStop id="1016680951" name="Jean Monnet" lane="87434500_0" startPos="94.03" endPos="101.53" friendlyPos="true"/>
    <busStop id="1114038111" name="Corbeville" lane="361585732#1_0" startPos="9.61" endPos="24.61" friendlyPos="true" lines="91-06 91-10 91-08"/>
    <busStop id="1114038113" name="Mûriers" lane="219752764#3_0" startPos="76.49" endPos="91.49" friendlyPos="true" lines="9"/>
    <busStop id="1192019234" name="Le Guichet (voie 2)" lane="103240673_0" startPos="28.31" endPos="228.31" friendlyPos="true" lines="B">
        <access lane="164014461_0" pos="4.36" length="20.92" friendlyPos="1"/>
        <access lane="164014462_0" pos="4.63" length="23.58" friendlyPos="1"/>
        <access lane="164014466_0" pos="0.00" length="11.96" friendlyPos="1"/>
        <access lane="37522154#2_0" pos="13.23" length="22.14" friendlyPos="1"/>
        <access lane="42294705_0" pos="7.95" length="19.50" friendlyPos="1"/>
    </busStop>
    <busStop id="1335923953" name="Plateau de Moulon - Corbeville" lane="20437760#1_0" startPos="0.00" endPos="10.31" friendlyPos="true" lines="9"/>
    <busStop id="1335923953@7886546" name="Plateau de Moulon - Corbeville" lane="697183355#0_0" startPos="0.00" endPos="8.09" friendlyPos="true" lines="9"/>
    <busStop id="1345568298" name="Charles de Gaulle" lane="14464658#1_0" startPos="25.70" endPos="40.70" friendlyPos="true" lines="9 8"/>
    <busStop id="1363114625" name="Martinière" lane="140997933_0" startPos="10.26" endPos="25.26" friendlyPos="true" lines="8"/>
    <busStop id="1413392430" name="Gare du Guichet RER" lane="701943515_0" startPos="0.00" endPos="7.50" friendlyPos="true"/>
    <busStop id="1413392487" name="Gare du Guichet RER" lane="47463090#1_0" startPos="12.94" endPos="20.44" friendlyPos="true"/>
    <busStop id="1413392596" name="Gare du Guichet RER" lane="701943517_0" startPos="0.00" endPos="7.50" friendlyPos="true"/>
    <busStop id="1416447173" name="Racine" lane="739173544#0_0" startPos="3.13" endPos="18.13" friendlyPos="true" lines="8 9"/>
    <busStop id="1416618379" name="Racine" lane="14464658#5_0" startPos="57.92" endPos="66.63" friendlyPos="true" lines="9 8"/>
    <busStop id="1416623837" name="Mairie - Hôpital - Orsay RER" lane="180964039#2_0" startPos="8.92" endPos="23.92" friendlyPos="true" lines="1 8 N122 9"/>
    <busStop id="1420980850" name="École du Guichet" lane="47463290#0_0" startPos="5.29" endPos="20.29" friendlyPos="true" lines="8"/>
    <busStop id="1420980855" name="Saint-Laurent" lane="233525208#1_0" startPos="10.83" endPos="23.80" friendlyPos="true" lines="1"/>
    <busStop id="1420980857" name="Fournier" lane="233525225#1_0" startPos="102.47" endPos="109.35" friendlyPos="true" lines="8"/>
    <busStop id="1420982408" name="Versailles" lane="527943457#1_0" startPos="10.40" endPos="25.40" friendlyPos="true" lines="9"/>
    <busStop id="1429827410" name="Buisson" lane="233525227_0" startPos="2.68" endPos="17.68" friendlyPos="true" lines="8"/>
    <busStop id="1617097618" name="Mairie d&apos;Orsay" lane="233525219_0" startPos="29.82" endPos="44.82" friendlyPos="true" lines="9 8 3"/>
    <busStop id="1722770104" name="Université Paris-Saclay" lane="20437767#1_0" startPos="111.05" endPos="126.05" friendlyPos="true" lines="7 91-08"/>
    <busStop id="1732826814" name="Gare du Guichet RER" lane="697865649_0" startPos="44.02" endPos="59.02" friendlyPos="true" lines="91-08">
        <access lane="-701943514_0" pos="21.26" length="31.96" friendlyPos="1"/>
        <access lane="701943514_0" pos="61.64" length="27.16" friendlyPos="1"/>
        <access lane="701943515_0" pos="0.00" length="14.84" friendlyPos="1"/>
        <access lane="701943516_0" pos="20.21" length="14.62" friendlyPos="1"/>
        <access lane="701943517_0" pos="15.55" length="34.06" friendlyPos="1"/>
    </busStop>
    <busStop id="1732826824" name="Gare du Guichet" lane="701943518_0" startPos="11.32" endPos="20.22" friendlyPos="true" lines="9"/>
    <busStop id="1732826840" name="Gare du Guichet RER" lane="701943519_0" startPos="5.81" endPos="15.17" friendlyPos="true" lines="91-08"/>
    <busStop id="1855952971" name="Bois des Rames" lane="115229320#2_0" startPos="0.00" endPos="10.51" friendlyPos="true" lines="7"/>
    <busStop id="243898123" name="Plateau de Moulon - Corbeville" lane="22737007#1_0" startPos="17.46" endPos="24.46" friendlyPos="true" lines="9"/>
    <busStop id="3137372917" name="Joliot-Curie" lane="720845272#1_0" startPos="10.68" endPos="25.68" friendlyPos="true"/>
    <busStop id="3842670001" name="Résidence de l&apos;Yvette" lane="717926947#2_0" startPos="72.55" endPos="87.55" friendlyPos="true" lines="1"/>
    <busStop id="471159029" name="Gare du Guichet RER" lane="174970474#1_0" startPos="18.75" endPos="26.25" friendlyPos="true"/>
    <busStop id="5444780496" name="L&apos;Isles" lane="90075240_0" startPos="84.95" endPos="99.95" friendlyPos="true" lines="6"/>
    <busStop id="5444780497" name="Georges Poitou" lane="369007492#1_0" startPos="43.33" endPos="58.33" friendlyPos="true" lines="6"/>
    <busStop id="5444780499" name="Bures - Amphi" lane="153002660#4_0" startPos="0.00" endPos="13.18" friendlyPos="true" lines="6"/>
    <busStop id="5444780503" name="Bibliothèque" lane="42294993#0_0" startPos="15.43" endPos="30.43" friendlyPos="true" lines="6"/>
    <busStop id="5444780504" name="Verger" lane="297105558#9_0" startPos="130.23" endPos="145.23" friendlyPos="true" lines="6"/>
    <busStop id="5444780508" name="Château" lane="67096966#1_0" startPos="35.30" endPos="44.57" friendlyPos="true" lines="7 6"/>
    <busStop id="5762436115" name="Bures-sur-Yvette RER - Université" lane="370956704#8_0" startPos="12.05" endPos="27.05" friendlyPos="true"/>
    <busStop id="5836393503" name="Lozère (voie 2)" lane="103240673_0" startPos="1468.93" endPos="1668.93" friendlyPos="true" lines="B"/>
    <busStop id="5836393504" name="Le Guichet (voie 1)" lane="23795604_0" startPos="495.89" endPos="612.52" friendlyPos="true">
        <access lane="129629730#0_0" pos="0.00" length="10.44" friendlyPos="1"/>
        <access lane="233525260_0" pos="0.00" length="9.18" friendlyPos="1"/>
        <access lane="42294640_0" pos="0.00" length="3.66" friendlyPos="1"/>
        <access lane="42294641_0" pos="0.00" length="10.68" friendlyPos="1"/>
        <access lane="43675752_0" pos="0.00" length="8.66" friendlyPos="1"/>
    </busStop>
    <busStop id="6166070861" name="Bures-sur-Yvette RER - Université" lane="370956704#9_0" startPos="8.45" endPos="22.59" friendlyPos="true" lines="N122 4 20"/>
    <busStop id="635550116" name="Lozère (voie 1)" lane="30037881_0" startPos="1255.62" endPos="1455.62" friendlyPos="true"/>
    <busStop id="6414402745" name="Lieu de Vie" lane="475020758#5_0" startPos="96.14" endPos="111.14" friendlyPos="true" lines="7 11"/>
    <busStop id="6414402746" name="De Broglie" lane="475020758#1_0" startPos="19.73" endPos="27.68" friendlyPos="true" lines="7 11"/>
    <busStop id="6414478646" name="Gare d&apos;Orsay - L&apos;Yvette" lane="174955282#1_0" startPos="7.73" endPos="15.23" friendlyPos="true"/>
    <busStop id="6451425150" name="CentraleSupélec" lane="417206210#2_0" startPos="10.02" endPos="25.02" friendlyPos="true" lines="11"/>
    <busStop id="6451425153" name="Joliot Curie" lane="20437797#4_0" startPos="4.81" endPos="19.81" friendlyPos="true" lines="11"/>
    <busStop id="6536020662" name="Collège Guyonnerie" lane="368477969#4_0" startPos="54.07" endPos="61.51" friendlyPos="true"/>
    <busStop id="6543632507" name="Couturier" lane="26824594_0" startPos="37.90" endPos="45.40" friendlyPos="true"/>
    <busStop id="6551894424" name="Université Paris-Saclay" lane="863336412#4_0" startPos="15.60" endPos="30.60" friendlyPos="true" lines="91-06 91-10 9"/>
    <busStop id="6551894425" name="Moulon TCSP" lane="863336412#1_0" startPos="17.66" endPos="32.66" friendlyPos="true" lines="91-06 91-10 9"/>
    <busStop id="6592019208" name="Gare du Guichet RER" lane="701943518_0" startPos="0.00" endPos="7.50" friendlyPos="true"/>
    <busStop id="6592019209" name="Gare du Guichet RER" lane="701943516_0" startPos="0.00" endPos="7.50" friendlyPos="true"/>
    <busStop id="6975361991" name="Parc Orsay Université" lane="134233673#2_0" startPos="8.51" endPos="16.01" friendlyPos="true"/>
    <busStop id="6975361992" name="Parc Orsay Université" lane="134233673#0_0" startPos="0.00" endPos="7.50" friendlyPos="true"/>
    <busStop id="8079477046" name="Bures-sur-Yvette RER - Université" lane="370956704#9_0" startPos="7.59" endPos="22.59" friendlyPos="true" lines="N122"/>
    <busStop id="8079477047" name="Mairie - Hôpital - Orsay RER" lane="180964039#2_0" startPos="4.57" endPos="19.57" friendlyPos="true" lines="N122"/>
    <busStop id="811025548" name="Launay" lane="67144889#1_0" startPos="10.12" endPos="24.69" friendlyPos="true" lines="7"/>
</additional>
