<?xml version="1.0" encoding="UTF-8"?>
<!-- generated on 2021-01-26 17:28:08.609013 by $Id: ptlines2flows.py v1_3_1+0313-ccb31df3eb jakob.erdmann@dlr.de 2019-09-02 13:26:32 +0200 $ v1_8_0+0044-4820708f3d
  options: -n osm.net.xml -e 3600 -p 600 <doubleminus>random-begin <doubleminus>seed 42 <doubleminus>ptstops osm_stops.add.xml <doubleminus>ptlines osm_ptlines.xml -o osm_pt.rou.xml <doubleminus>ignore-errors <doubleminus>vtype-prefix pt_ <doubleminus>stopinfos-file stopinfos.xml <doubleminus>routes-file vehroutes.xml <doubleminus>trips-file trips.trips.xml <doubleminus>min-stops 0 <doubleminus>extend-to-fringe <doubleminus>verbose
-->
<routes xmlns:xsi="http://www.w3.org/2001/XMLSchema-instance" xsi:noNamespaceSchemaLocation="http://sumo.dlr.de/xsd/routes_file.xsd">
    <vType id="pt_bus" vClass="bus"/>
    <vType id="pt_tram" vClass="tram"/>
    <vType id="pt_train" vClass="rail"/>
    <vType id="pt_subway" vClass="rail_urban"/>
    <vType id="pt_light_rail" vClass="rail_urban"/>
    <vType id="pt_monorail" vClass="rail"/>
    <vType id="pt_trolleybus" vClass="bus"/>
    <vType id="pt_aerialway" vClass="bus"/>
    <vType id="pt_ferry" vClass="ship"/>
    <route id="pt_bus_3:0" edges="233525219 14464635#0 14464635#1" >
        <stop busStop="1617097618" duration="30.00" until="73.0"/> <!-- Mairie d'Orsay -->
    </route>
    <route id="pt_bus_1:0" edges="717926947#0 717926947#1 717926947#2 717926947#3 261623765 233525208#0 233525208#1 233525208#2 544768661#0 544768661#1 544768661#2 180964039#1 180964039#2 180964039#3 180964039#5 14464635#0 14464635#1" >
        <stop busStop="3842670001" duration="30.00" until="93.0"/> <!-- Résidence de l'Yvette -->
        <stop busStop="1420980855" duration="30.00" until="165.0"/> <!-- Saint-Laurent -->
        <stop busStop="1416623837" duration="30.00" until="252.0"/> <!-- Mairie - Hôpital - Orsay RER -->
    </route>
    <route id="pt_bus_8:1" edges="233525219 -180964039#5 -180964039#3 -180964039#2 -180964039#1 -163585086#4 -163585086#2 -163585086#1 -163585086#0 -555826580#1 -555826580#0 -213560705 -128131688 -34074473 14464658#1 14464658#2 14464658#3 14464658#4 14464658#5 739173545#0 739173545#1 -739173544#0 -44848116#2 -44848116#1 -371232057 19881637#1 233525225#0 233525225#1 15230009#4 15230009#1 15230009#2 -15230000#1 -15230000#0 80699620#1 80699620#2 -47463290#2 -47463290#1" >
        <stop busStop="1617097618" duration="30.00" until="41.0"/> <!-- Mairie d'Orsay -->
        <stop busStop="1345568298" duration="30.00" until="134.0"/> <!-- Charles de Gaulle -->
        <stop busStop="1416618379" duration="30.00" until="208.0"/> <!-- Racine -->
        <stop busStop="1420980857" duration="30.00" until="296.0"/> <!-- Fournier -->
    </route>
    <route id="pt_bus_4:1" edges="-266622814#1 -266622814#0 -370956704#9 -370956704#8 -370956704#7 -370956704#6 -370956704#5 -370956704#4 -370956704#2 -370956704#1 -370956704#0 -20441587 -20441580#1 -20441580#0 -447214445 368477969#0 368477969#3 368477969#4" >
        <stop busStop="-5762436116" duration="30.00" until="113.0"/> <!-- Bures-sur-Yvette RER - Université -->
    </route>
    <route id="pt_bus_91-08:1" edges="606974222 22737003 697183355#6 697183355#7 697183355#8 20437760#0 20437760#1 20437767#0 20437767#1 -20437767#1 -20437767#0 22737007#0 22737007#1 697183355#0 697183355#1 697183355#2 697183355#3 697183355#4 22737019 131339233 697865649 697864946#0 697864946#1 19881634" >
        <stop busStop="1722770104" duration="30.00" until="104.0"/> <!-- Université Paris-Saclay -->
        <stop busStop="1732826814" duration="30.00" until="292.0"/> <!-- Gare du Guichet RER -->
    </route>
    <route id="pt_bus_7:0" edges="20437760#0 20437760#1 20437767#0 20437767#1 782860080 691254185 -758220776 -758220777 -770887940#0 -533535799 -475020758#7 -475020758#5 -475020758#4 -475020758#3 -475020758#2 -475020758#1 115229328 -174955280#2 -174955280#1 -447214435 -115229320#2 -115229320#1 -115229320#0 -442773112#1 -442773112#0 115229330 233525235 15389819#0 15389819#1 15389819#2 15389819#4 15389819#5 15389819#6 442436512 447214444 67411728#0 174955289 68122526#0 68122526#1 67144889#0 67144889#1 67144889#3 174955296#0 174955296#1 174955296#2 174955296#4 174955296#5 67198498 67096966#0 67096966#1 67096966#2 67096966#3 67096966#4 67096966#5 67096966#6 67096966#7 553570319 67122011#0 67122011#1 67122011#2 -41591446 -14464645 -447214436 -684608919#2 -684608919#1 -684608919#0 -174955282#1 174955282#1" >
        <stop busStop="1722770104" duration="30.00" until="70.0"/> <!-- Université Paris-Saclay -->
        <stop busStop="-6414402742" duration="30.00" until="139.0"/> <!-- Lieu de Vie -->
        <stop busStop="-1855952972" duration="30.00" until="208.0"/> <!-- De Broglie -->
        <stop busStop="-677507133" duration="30.00" until="287.0"/> <!-- Bois des Rames -->
        <stop busStop="811025548" duration="30.00" until="432.0"/> <!-- Launay -->
        <stop busStop="5444780508" duration="30.00" until="504.0"/> <!-- Château -->
    </route>
    <route id="pt_bus_7:1" edges="684608919#0 684608919#1 684608919#2 447214436 14464645 41591446 -67122011#2 -67122011#1 -67122011#0 -553570319 -67096966#7 -67096966#6 -67096966#5 -67096966#4 -67096966#3 -67096966#2 -67096966#1 -67096966#0 -67198498 -174955296#5 -174955296#4 -174955296#2 -174955296#1 -174955296#0 -67144889#3 -67144889#1 -67144889#0 67144885#0 67144885#1 174955287 68122525 -442436512 -15389819#6 -15389819#5 -15389819#4 -15389819#2 -15389819#1 -15389819#0 27024380 442773112#0 442773112#1 115229320#0 115229320#1 115229320#2 447214435 174955280#1 174955280#2 174955279 684607203#0 684607203#1 475020758#1 475020758#2 475020758#3 475020758#4 475020758#5 475020758#7 533535799 770887940#0 770887940#1 758220776 -691254185 -782860080 -20437767#1 -20437767#0 22737007#0 22737007#1" >
        <stop busStop="-5444780498" duration="30.00" until="65.0"/> <!-- Château -->
        <stop busStop="-6414402747" duration="30.00" until="133.0"/> <!-- Launay -->
        <stop busStop="1855952971" duration="30.00" until="280.0"/> <!-- Bois des Rames -->
        <stop busStop="6414402746" duration="30.00" until="359.0"/> <!-- De Broglie -->
        <stop busStop="6414402745" duration="30.00" until="426.0"/> <!-- Lieu de Vie -->
        <stop busStop="-6414402744" duration="30.00" until="515.0"/> <!-- Université Paris-Saclay -->
    </route>
    <route id="pt_bus_20:1" edges="-266622814#1 -266622814#0 -370956704#9 -370956704#8 -370956704#7 -370956704#6 -370956704#5 -370956704#4 -370956704#2 -370956704#1 -370956704#0 -20441587 -20441580#1 -20441580#0 -447214445 368477969#0 368477969#3 368477969#4" >
        <stop busStop="-5762436116" duration="30.00" until="116.0"/> <!-- Bures-sur-Yvette RER - Université -->
    </route>
    <route id="pt_bus_6:0" edges="565300732#0 565300732#1 -369007476#1 -369007476#0 -23791996 -368672317#6 -368672317#5 -368672317#4 -368672317#3 -368672317#2 -368672317#1 -368672317#0 90075240 83370318 83370314#0 83370314#1 83370314#2 75009997#0 75009997#1 75009997#2 -153002660#4 -153002660#3 -153002660#2 -153002660#0 297105558#1 297105558#2 297105558#3 297105558#4 297105558#5 297105558#6 297105558#8 297105558#9 -414947297#1 -184279492#3 -184279492#2 -184279492#0 -369007492#1 -42294993#3 -42294993#2 -42294993#1 -42294993#0 -23791683#7 -23791683#6 -23791683#4 -23791683#3 -23791683#2 -23791683#1 -23791683#0 67096966#0 67096966#1 67096966#2 67096966#3 67096966#4 67096966#5 67096966#6 67096966#7 553570319 67122011#0 67122011#1 67122011#2 -41591446 -14464645 -447214436 -684608919#2 -684608919#1 -684608919#0 -174955282#1 174955282#1" >
        <stop busStop="5444780496" duration="30.00" until="87.0"/> <!-- L'Isles -->
        <stop busStop="-5444780495" duration="30.00" until="156.0"/> <!-- Bures - Amphi -->
        <stop busStop="5444780504" duration="30.00" until="249.0"/> <!-- Verger -->
        <stop busStop="-5444780507" duration="30.00" until="315.0"/> <!-- Georges Poitou -->
        <stop busStop="-5444780500" duration="30.00" until="371.0"/> <!-- Bibliothèque -->
        <stop busStop="5444780508" duration="30.00" until="465.0"/> <!-- Château -->
    </route>
    <route id="pt_bus_91-08:2" edges="-219719294#8 -219719294#7 -219719294#6 -219719294#5 -219719294#4 -219719294#3 -219719294#2 -219719294#1 -219719294#0 361585732#1 361585732#2 455371641 455371642#1 455371643 722225470 292491931#1 440954769 -455371646 -446506378 -22737021#1 22737008#0 -691254185 -782860080 -20437767#1 -20437767#0 22737007#0 22737007#1 697183355#0 697183355#1 697183355#2 22736998 22737000 22737001#0 22737001#1" >
        <stop busStop="1114038111" duration="30.00" until="148.0"/> <!-- Corbeville -->
        <stop busStop="-6414402744" duration="30.00" until="357.0"/> <!-- Université Paris-Saclay -->
    </route>
    <route id="pt_bus_91-08:3" edges="606974222 22737003 697183355#6 697183355#7 697183355#8 20437760#0 20437760#1 20437767#0 20437767#1 782860080 691254185 -22737008#1 22737021#1 446506378 455371646 455371645 -292491931#1 -292491931#0 -455371643 -455371642#1 -455371642#0 -361585732#2 -361585732#1 -361585732#0 219719294#1 219719294#2 219719294#3 219719294#4 219719294#5 219719294#6 219719294#7 219719294#8" >
        <stop busStop="1722770104" duration="30.00" until="103.0"/> <!-- Université Paris-Saclay -->
        <stop busStop="-6551894423" duration="30.00" until="307.0"/> <!-- Corbeville -->
    </route>
    <route id="pt_bus_91-08:4" edges="606974222 697848280 131339233 697865649 697864946#0 697864946#1 19881634" >
        <stop busStop="1732826814" duration="30.00" until="123.0"/> <!-- Gare du Guichet RER -->
    </route>
    <route id="pt_train_B:3" edges="103240673" >
        <stop busStop="1192019234" duration="30.00" until="60.0"/> <!-- Le Guichet (voie 2) -->
        <stop busStop="5836393503" duration="30.00" until="207.0"/> <!-- Lozère (voie 2) -->
    </route>
    <route id="pt_bus_4:0" edges="696040927#0 696040927#1 -520495295#7 -520495295#6 -520495295#5 -520495295#4 -520495295#3 -520495295#2 -520495295#1 -520495295#0 -67411767#5 -67411767#4 -67411767#3 15229961#0 163623318#4 163623318#5 184279492#2 184279492#3 414947297#1 23791991#0 23791991#1 23791994 23791995#1 23791995#2 23791995#3 -565300731#10 -565300731#9 -565300731#8 -565300731#5 -565300731#4 -565300731#3 -565300731#2 -565300731#1 -565300731#0 -184279494#1 -184279494#0 -369007476#1 -369007476#0 -23791996 -368672317#6 -368672317#5 -368672317#4 -368672317#3 -368672317#2 -368672317#1 -368672317#0 -370956704#9 370956704#9 266622813#1 266622814#1" >
        <stop busStop="6166070861" duration="30.00" until="339.0"/> <!-- Bures-sur-Yvette RER - Université -->
    </route>
    <route id="pt_train_B:0" edges="-30037881 -15093806 -23795604" >
        <stop busStop="-635550116" duration="30.00" until="129.0"/> <!-- Lozère (voie 1) -->
        <stop busStop="-5836393504" duration="30.00" until="276.0"/> <!-- Le Guichet (voie 1) -->
    </route>
    <route id="pt_bus_91-08:0" edges="69706093 213560706 362262996#0 362262996#1 24341374 164014459 -22764742#0 -22764741#1 -22764741#0 -22764743#0 140038552#0 164014452#1 164014452#2 135702200#0 135702200#1 15229937#3 47463134#0 47463134#2 47463134#3 697712600#1 -701943514 -174970474#1 -174970474#0 47463090#0 47463090#1 701943519 701943518 701943517 701943516 701943515 131340350#0 131340350#1 15229937#5 15229937#6 15229955 143311245#1 527943457#1 219752764#0 219752764#1 219752764#2 219752764#3 44848109#0 44848109#1 715087202#0 715087202#1 581669019 581669017#2 581669017#3 581669017#4 581669014#0 -446506377#2 -446506377#1 -22737021#1 22737008#0 -691254185 -782860080 -20437767#1 -20437767#0 22737007#0 22737007#1 697183355#0 697183355#1 697183355#2 22736998 22737000 22737001#0 22737001#1" >
        <stop busStop="1732826840" duration="30.00" until="238.0"/> <!-- Gare du Guichet RER -->
        <stop busStop="-6414402744" duration="30.00" until="532.0"/> <!-- Université Paris-Saclay -->
    </route>
    <route id="pt_bus_20:0" edges="696040927#0 696040927#1 -520495295#7 -520495295#6 -520495295#5 -520495295#4 -520495295#3 -520495295#2 -520495295#1 -520495295#0 -67411767#5 -67411767#4 -67411767#3 15229961#0 163623318#4 163623318#5 184279492#2 184279492#3 414947297#1 23791991#0 23791991#1 23791994 23791995#1 23791995#2 23791995#3 -565300731#10 -565300731#9 -565300731#8 -565300731#5 -565300731#4 -565300731#3 -565300731#2 -565300731#1 -565300731#0 -184279494#1 -184279494#0 -369007476#1 -369007476#0 -23791996 -368672317#6 -368672317#5 -368672317#4 -368672317#3 -368672317#2 -368672317#1 -368672317#0 -370956704#9 370956704#9 266622813#1 266622814#1" >
        <stop busStop="6166070861" duration="30.00" until="363.0"/> <!-- Bures-sur-Yvette RER - Université -->
    </route>
    <route id="pt_train_B:4" edges="103240673" >
        <stop busStop="1192019234" duration="30.00" until="85.0"/> <!-- Le Guichet (voie 2) -->
        <stop busStop="5836393503" duration="30.00" until="235.0"/> <!-- Lozère (voie 2) -->
    </route>
    <route id="pt_train_B:1" edges="-30037881 -15093806 -23795604" >
        <stop busStop="-635550116" duration="30.00" until="163.0"/> <!-- Lozère (voie 1) -->
        <stop busStop="-5836393504" duration="30.00" until="313.0"/> <!-- Le Guichet (voie 1) -->
    </route>
    <route id="pt_bus_91-06:1" edges="-219719294#8 -219719294#7 -219719294#6 -219719294#5 -219719294#4 -219719294#3 -219719294#2 -219719294#1 -219719294#0 361585732#1 361585732#2 455371641 455371642#1 455371643 722225470 292491931#1 440954769 -455371646 -446506378 -22737021#1 22737008#0 -691254185 -782860080 -863336412#5 -863336412#4 -863336412#3 -863336412#2 -863336412#1 -863336412#0 -720845272#2 -720845272#1 -720845272#0 -832745421#4 -832745421#3 -832745421#2 -832745421#1" >
        <stop busStop="1114038111" duration="30.00" until="148.0"/> <!-- Corbeville -->
        <stop busStop="-4096918910" duration="30.00" until="351.0"/> <!-- Université Paris-Saclay -->
        <stop busStop="-6551894444" duration="30.00" until="460.0"/> <!-- Moulon TCSP -->
        <stop busStop="-3980845786" duration="30.00" until="561.0"/> <!-- Joliot-Curie -->
    </route>
    <route id="pt_bus_91-06:0" edges="832745421#0 832745421#2 832745421#3 832745421#4 -720845271 404277029#0 404277029#1 -404275706#3 -404275706#2 -404275706#0 863336412#0 863336412#1 863336412#2 863336412#3 863336412#4 863336412#5 782860080 691254185 -22737008#1 22737021#1 446506378 455371646 455371645 -292491931#1 -292491931#0 -455371643 -455371642#1 -455371642#0 -361585732#2 -361585732#1 -361585732#0 219719294#1 219719294#2 219719294#3 219719294#4 219719294#5 219719294#6 219719294#7 219719294#8" >
        <stop busStop="-6552378820" duration="30.00" until="281.0"/> <!-- Joliot-Curie -->
        <stop busStop="6551894425" duration="30.00" until="377.0"/> <!-- Moulon TCSP -->
        <stop busStop="6551894424" duration="30.00" until="485.0"/> <!-- Université Paris-Saclay -->
        <stop busStop="-6551894423" duration="30.00" until="687.0"/> <!-- Corbeville -->
    </route>
    <route id="pt_train_B:5" edges="103240673" >
        <stop busStop="1192019234" duration="30.00" until="60.0"/> <!-- Le Guichet (voie 2) -->
        <stop busStop="5836393503" duration="30.00" until="207.0"/> <!-- Lozère (voie 2) -->
    </route>
    <route id="pt_train_B:2" edges="-30037881 -15093806 -23795604" >
        <stop busStop="-635550116" duration="30.00" until="197.0"/> <!-- Lozère (voie 1) -->
        <stop busStop="-5836393504" duration="30.00" until="349.0"/> <!-- Le Guichet (voie 1) -->
    </route>
    <route id="pt_bus_6:1" edges="684608919#0 684608919#1 684608919#2 447214436 14464645 41591446 -67122011#2 -67122011#1 -67122011#0 -553570319 -67096966#7 -67096966#6 -67096966#5 -67096966#4 -67096966#3 -67096966#2 -67096966#1 -67096966#0 23791683#0 23791683#1 23791683#2 23791683#3 23791683#4 23791683#6 23791683#7 42294993#0 42294993#1 42294993#2 42294993#3 369007492#1 184279492#0 184279492#2 184279492#3 414947297#1 -297105558#9 -297105558#8 -297105558#6 -297105558#5 -297105558#4 -297105558#3 -297105558#2 -297105558#1 -297105558#0 153002660#2 153002660#3 153002660#4 -75009997#2 -75009997#1 -75009997#0 -83370314#2 -83370314#1 -83370314#0 -83370318 -90075240 50648709 368672317#1 368672317#2 368672317#3 368672317#4 368672317#5 368672317#6 23791996 369007476#0 369007476#1 184279494#0 184279494#1 87434487#0 87434487#1 87434487#2 87434487#3 87434487#4 87434487#5" >
        <stop busStop="-5444780498" duration="30.00" until="65.0"/> <!-- Château -->
        <stop busStop="5444780503" duration="30.00" until="133.0"/> <!-- Bibliothèque -->
        <stop busStop="5444780497" duration="30.00" until="189.0"/> <!-- Georges Poitou -->
        <stop busStop="-5444780502" duration="30.00" until="257.0"/> <!-- Verger -->
        <stop busStop="5444780499" duration="30.00" until="354.0"/> <!-- Bures - Amphi -->
        <stop busStop="-5444780505" duration="30.00" until="421.0"/> <!-- L'Isles -->
    </route>
    <route id="pt_bus_91-10:0" edges="-219719294#8 -219719294#7 -219719294#6 -219719294#5 -219719294#4 -219719294#3 -219719294#2 -219719294#1 -219719294#0 361585732#1 361585732#2 455371641 455371642#1 455371643 722225470 292491931#1 440954769 -455371646 -446506378 -22737021#1 22737008#0 -691254185 -782860080 -863336412#5 -863336412#4 -863336412#3 -863336412#2 -863336412#1 -863336412#0 -720845272#2 -720845272#1 -720845272#0 -832745421#4 -832745421#3 -832745421#2 -832745421#1" >
        <stop busStop="1114038111" duration="30.00" until="147.0"/> <!-- Corbeville -->
        <stop busStop="-4096918910" duration="30.00" until="361.0"/> <!-- Université Paris-Saclay -->
        <stop busStop="-6551894444" duration="30.00" until="470.0"/> <!-- Moulon TCSP -->
        <stop busStop="-3980845786" duration="30.00" until="579.0"/> <!-- Joliot-Curie -->
    </route>
    <route id="pt_bus_8:0" edges="696788631 140997949 140997933 233525227 37520995 -380969252 -164014447 97236180#0 22766391#0 22766391#1 22766391#3 47463290#0 47463290#1 47463290#2 80699620#3 80699620#4 80699620#5 15230000#0 15230000#1 15230009#3 -233525225#1 233525225#1 15230009#4 15230009#1 15230009#2 15230009#3 -233525225#1 -233525225#0 -19881637#1 -19881637#0 44848116#1 44848116#2 739173544#0 -739173545#1 -739173545#0 -14464658#5 -14464658#4 -14464658#3 -14464658#2 -14464658#1 34074428 128131688 213560705 555826580#0 555826580#1 163585086#0 163585086#1 163585086#2 163585086#3 180964039#1 180964039#2 180964039#3 180964039#5 14464635#0 14464635#1" >
        <stop busStop="1363114625" duration="30.00" until="61.0"/> <!-- Martinière -->
        <stop busStop="1429827410" duration="30.00" until="410.0"/> <!-- Buisson -->
        <stop busStop="-1429827411" duration="30.00" until="481.0"/> <!-- Aristide Briand -->
        <stop busStop="1420980850" duration="30.00" until="550.0"/> <!-- École du Guichet -->
        <stop busStop="1420980857" duration="30.00" until="639.0"/> <!-- Fournier -->
        <stop busStop="1416447173" duration="30.00" until="719.0"/> <!-- Racine -->
        <stop busStop="-604035097" duration="30.00" until="800.0"/> <!-- Charles de Gaulle -->
        <stop busStop="1416623837" duration="30.00" until="893.0"/> <!-- Mairie - Hôpital - Orsay RER -->
    </route>
    <route id="pt_bus_11:1" edges="832745421#0 832745421#2 832745421#3 832745421#4 20437797#1 20437797#2 20437797#3 20437797#4 -383176690#4 -383176690#3 -383176690#2 -383176690#1 -383176690#0 -408883117 -174955284#2 -174955284#1 -174955284#0 -417206210#2 -417206210#1 -417206210#0 -174955283#8 -174955283#7 -174955283#6 -174955283#5 -174955283#3 -174955283#2 -174955283#0 -475020758#7 -475020758#5 -475020758#4 -475020758#3 -475020758#2 -475020758#1 -684607203#1 -684607203#0 -20437787 -745161146" >
        <stop busStop="6451425153" duration="30.00" until="283.0"/> <!-- Joliot Curie -->
        <stop busStop="-6451425151" duration="30.00" until="352.0"/> <!-- CentraleSupélec -->
        <stop busStop="-6414402742" duration="30.00" until="428.0"/> <!-- Lieu de Vie -->
    </route>
    <route id="pt_bus_91-10:1" edges="832745421#0 832745421#2 832745421#3 832745421#4 -720845271 404277029#0 404277029#1 -404275706#3 -404275706#2 -404275706#0 863336412#0 863336412#1 863336412#2 863336412#3 863336412#4 863336412#5 782860080 691254185 -22737008#1 22737021#1 446506378 455371646 455371645 -292491931#1 -292491931#0 -455371643 -455371642#1 -455371642#0 -361585732#2 -361585732#1 -361585732#0 219719294#1 219719294#2 219719294#3 219719294#4 219719294#5 219719294#6 219719294#7 219719294#8" >
        <stop busStop="-6552378820" duration="30.00" until="271.0"/> <!-- Joliot-Curie -->
        <stop busStop="6551894425" duration="30.00" until="370.0"/> <!-- Moulon TCSP -->
        <stop busStop="6551894424" duration="30.00" until="477.0"/> <!-- Université Paris-Saclay -->
        <stop busStop="-6551894423" duration="30.00" until="675.0"/> <!-- Corbeville -->
    </route>
    <route id="pt_bus_11:0" edges="134233673#0 134233673#2 745161146 20437787 684607203#0 684607203#1 475020758#1 475020758#2 475020758#3 475020758#4 475020758#5 475020758#7 174955283#0 174955283#2 174955283#3 174955283#5 174955283#6 174955283#7 174955283#8 417206210#0 417206210#1 417206210#2 174955284#0 174955284#1 174955284#2 408883117 383176690#0 383176690#1 383176690#2 383176690#3 383176690#4 -20437797#4 -20437797#3 -20437797#2 -20437797#1 -832745421#4 -832745421#3 -832745421#2 -832745421#1" >
        <stop busStop="6414402746" duration="30.00" until="65.0"/> <!-- De Broglie -->
        <stop busStop="6414402745" duration="30.00" until="135.0"/> <!-- Lieu de Vie -->
        <stop busStop="6451425150" duration="30.00" until="214.0"/> <!-- CentraleSupélec -->
        <stop busStop="-6451425152" duration="30.00" until="285.0"/> <!-- Joliot Curie -->
    </route>
    <route id="pt_bus_9:0" edges="233525219 -180964039#5 -180964039#3 -180964039#2 -180964039#1 -163585086#4 -163585086#2 -163585086#1 -163585086#0 -555826580#1 -555826580#0 -213560705 -128131688 -34074473 14464658#1 14464658#2 14464658#3 14464658#4 14464658#5 739173545#0 739173545#1 -739173544#0 -44848116#2 -44848116#1 233525223#0 131339230 47463090#0 47463090#1 701943519 701943518 701943517 701943516 701943515 131340350#0 131340350#1 15229937#5 15229937#6 15229955 143311245#1 527943457#1 219752764#0 219752764#1 219752764#2 219752764#3 44848109#0 44848109#1 715087202#0 715087202#1 581669019 581669017#2 22736997#0 22736997#1 697183355#2 697183355#3 697183355#4 697183355#5 697183355#6 697183355#7 697183355#8 20437760#0 20437760#1 20437767#0 20437767#1 -863336412#5 -863336412#4 -863336412#3 -863336412#2 -863336412#1 -863336412#0 -720845272#2 -720845272#1 -720845272#0 -832745421#4 -832745421#3 -832745421#2 -832745421#1" >
        <stop busStop="1617097618" duration="30.00" until="41.0"/> <!-- Mairie d'Orsay -->
        <stop busStop="1345568298" duration="30.00" until="138.0"/> <!-- Charles de Gaulle -->
        <stop busStop="1416618379" duration="30.00" until="211.0"/> <!-- Racine -->
        <stop busStop="1732826824" duration="30.00" until="306.0"/> <!-- Gare du Guichet -->
        <stop busStop="1420982408" duration="30.00" until="477.0"/> <!-- Versailles -->
        <stop busStop="1114038113" duration="30.00" until="544.0"/> <!-- Mûriers -->
        <stop busStop="1335923953" duration="30.00" until="662.0"/> <!-- Plateau de Moulon - Corbeville -->
        <stop busStop="-4096918910" duration="30.00" until="753.0"/> <!-- Université Paris-Saclay -->
        <stop busStop="-6551894444" duration="30.00" until="862.0"/> <!-- Moulon TCSP -->
        <stop busStop="-3980845786" duration="30.00" until="951.0"/> <!-- Joliot-Curie -->
    </route>
    <route id="pt_bus_9:2" edges="832745421#0 832745421#2 832745421#3 832745421#4 -720845271 404277029#0 404277029#1 -404275706#3 -404275706#2 -404275706#0 863336412#0 863336412#1 863336412#2 863336412#3 863336412#4 863336412#5 782860080 691254185 -22737008#1 22737021#1 446506377#1 446506377#2 581669015#1 581669017#6 581669016 -715087202#1 -715087202#0 -44848109#1 -44848109#0 -219752764#3 -219752764#2 -219752764#1 -219752764#0 -527943457#1 -143311245#2 143311247 15229937#1 15229937#2 15229937#3 47463134#0 47463134#2 47463134#3 697712600#1 -701943514" >
        <stop busStop="-6552378820" duration="30.00" until="272.0"/> <!-- Joliot-Curie -->
        <stop busStop="6551894425" duration="30.00" until="370.0"/> <!-- Moulon TCSP -->
        <stop busStop="6551894424" duration="30.00" until="480.0"/> <!-- Université Paris-Saclay -->
        <stop busStop="-6552378817" duration="30.00" until="643.0"/> <!-- Mûriers -->
        <stop busStop="-1420982413" duration="30.00" until="702.0"/> <!-- Versailles -->
    </route>
    <route id="pt_bus_9:3" edges="701943517 701943516 701943515 131340350#0 131340350#1 15229937#5 15229937#6 15229955 143311245#1 527943457#1 219752764#0 219752764#1 219752764#2 219752764#3 44848109#0 44848109#1 715087202#0 715087202#1 581669019 581669017#2 581669017#3 581669017#4 581669014#0 -446506377#2 -446506377#1 -22737021#1 22737008#0 -691254185 -782860080 -863336412#5 -863336412#4 -863336412#3 -863336412#2 -863336412#1 -863336412#0 -720845272#2 -720845272#1 -720845272#0 -832745421#4 -832745421#3 -832745421#2 -832745421#1" >
        <stop busStop="1420982408" duration="30.00" until="113.0"/> <!-- Versailles -->
        <stop busStop="1114038113" duration="30.00" until="181.0"/> <!-- Mûriers -->
        <stop busStop="-4096918910" duration="30.00" until="364.0"/> <!-- Université Paris-Saclay -->
        <stop busStop="-6551894444" duration="30.00" until="474.0"/> <!-- Moulon TCSP -->
        <stop busStop="-3980845786" duration="30.00" until="560.0"/> <!-- Joliot-Curie -->
    </route>
    <route id="pt_bus_9:1" edges="832745421#0 832745421#2 832745421#3 832745421#4 -720845271 404277029#0 404277029#1 -404275706#3 -404275706#2 -404275706#0 863336412#0 863336412#1 863336412#2 -134230455#5 -134230455#3 -134230455#2 -134230455#1 -134230455#0 392689407#10 399859418#3 22736995#0 22736995#1 697183355#8 20437760#0 20437760#1 22737007#0 22737007#1 697183355#0 22736996#0 22736996#1 581669017#4 581669014#0 -446506377#2 -446506377#1 -22737021#1 22737008#0 -691254185 -782860080 -863336412#5 -863336412#4 863336412#4 863336412#5 782860080 691254185 -22737008#1 22737021#1 446506377#1 446506377#2 581669015#1 581669017#6 581669016 -715087202#1 -715087202#0 -44848109#1 -44848109#0 -219752764#3 -219752764#2 -219752764#1 -219752764#0 -527943457#1 -143311245#2 143311247 15229937#1 15229937#2 15229937#3 47463134#0 47463134#2 47463134#3 697712600#1 -701943514 -174970474#1 -174970474#0 -131339230 -233525223#1 44848116#1 44848116#2 739173544#0 -739173545#1 -739173545#0 -14464658#5 -14464658#4 -14464658#3 -14464658#2 -14464658#1 34074428 128131688 213560705 555826580#0 555826580#1 163585086#0 163585086#1 163585086#2 163585086#3 180964039#1 180964039#2 180964039#3 180964039#5 -233525219" >
        <stop busStop="-6552378820" duration="30.00" until="272.0"/> <!-- Joliot-Curie -->
        <stop busStop="6551894425" duration="30.00" until="369.0"/> <!-- Moulon TCSP -->
        <stop busStop="243898123" duration="30.00" until="492.0"/> <!-- Plateau de Moulon - Corbeville -->
        <stop busStop="1335923953@7886546" duration="30.00" until="532.0"/> <!-- Plateau de Moulon - Corbeville -->
        <stop busStop="6551894424" duration="30.00" until="674.0"/> <!-- Université Paris-Saclay -->
        <stop busStop="-6552378817" duration="30.00" until="871.0"/> <!-- Mûriers -->
        <stop busStop="-1420982413" duration="30.00" until="930.0"/> <!-- Versailles -->
        <stop busStop="-1341778473" duration="30.00" until="1016.0"/> <!-- Gare du Guichet RER -->
        <stop busStop="1416447173" duration="30.00" until="1094.0"/> <!-- Racine -->
        <stop busStop="-604035097" duration="30.00" until="1174.0"/> <!-- Charles de Gaulle -->
        <stop busStop="1416623837" duration="30.00" until="1266.0"/> <!-- Mairie - Hôpital - Orsay RER -->
    </route>
    <flow id="pt_bus_3:0" type="pt_bus" route="pt_bus_3:0" begin="138.0" end="3738.0" period="600" line="3:0" >
        <param key="name" value="Bus 3 : Centre Commercial Ulis 2 → Gare d'Orsay Ville"/>
        <param key="completeness" value="0.06"/>
    </flow>
    <flow id="pt_bus_1:0" type="pt_bus" route="pt_bus_1:0" begin="58.0" end="3658.0" period="600" line="1:0" >
        <param key="name" value="Bus 1 : Gare d’Igny RER → Rond-Point Camille Claudel → Orsay-Ville RER"/>
        <param key="completeness" value="0.08"/>
    </flow>
    <flow id="pt_bus_8:1" type="pt_bus" route="pt_bus_8:1" begin="132.0" end="3732.0" period="600" line="8:1" >
        <param key="name" value="Bus 8 : Orsay-Ville RER → Couturier"/>
        <param key="completeness" value="0.50"/>
    </flow>
    <flow id="pt_bus_4:1" type="pt_bus" route="pt_bus_4:1" begin="326.0" end="3926.0" period="600" line="4:1" >
        <param key="name" value="Bus 4 : Centre Commercial Ulis 2 → Collège Guyonnerie"/>
        <param key="completeness" value="0.09"/>
    </flow>
    <flow id="pt_bus_91-08:1" type="pt_bus" route="pt_bus_91-08:1" begin="204.0" end="3804.0" period="600" line="91-08:1" >
        <param key="name" value="Bus 91-08: Centre Commercial (Vélizy) → Mairie des Ulis"/>
        <param key="completeness" value="0.67"/>
    </flow>
    <flow id="pt_bus_7:0" type="pt_bus" route="pt_bus_7:0" begin="15.0" end="3615.0" period="600" line="7:0" >
        <param key="name" value="Bus 7 : Corbeville - Plateau du Moulon → Gare d'Orsay - L'Yvette"/>
        <param key="completeness" value="1.00"/>
    </flow>
    <flow id="pt_bus_7:1" type="pt_bus" route="pt_bus_7:1" begin="15.0" end="3615.0" period="600" line="7:1" >
        <param key="name" value="Bus 7 : Gare d'Orsay - L'Yvette → Corbeville - Plateau du Moulon"/>
        <param key="completeness" value="1.00"/>
    </flow>
    <flow id="pt_bus_20:1" type="pt_bus" route="pt_bus_20:1" begin="362.0" end="3962.0" period="600" line="20:1" >