<?xml version="1.0" encoding="UTF-8"?>
<!-- generated on 2021-01-28 10:16:57.376148 by $Id: ptlines2flows.py v1_3_1+0313-ccb31df3eb jakob.erdmann@dlr.de 2019-09-02 13:26:32 +0200 $ v1_8_0+0044-4820708f3d
  options: 
-->
<routes xmlns:xsi="http://www.w3.org/2001/XMLSchema-instance" xsi:noNamespaceSchemaLocation="http://sumo.dlr.de/xsd/routes_file.xsd">
    <vType id="pt_bus" vClass="bus"/>
    <vType id="pt_tram" vClass="tram"/>
    <vType id="pt_train" vClass="rail"/>
    <vType id="pt_subway" vClass="rail_urban"/>
    <vType id="pt_light_rail" vClass="rail_urban"/>
    <vType id="pt_monorail" vClass="rail"/>
    <vType id="pt_trolleybus" vClass="bus"/>
    <vType id="pt_aerialway" vClass="bus"/>
    <vType id="pt_ferry" vClass="ship"/>
    <route id="pt_bus_14:0" edges="697770152 376385690#0 376385690#1 376385690#2 376385690#3 376385690#4 376385690#5 404287181#0 404287181#1 404287181#2 404287181#4 -747059917 363081449#0 363081449#1 363081449#2 363081449#3 363081449#4 339736822#0 339736822#1 339736822#2 339736822#3 741201990#0 741201990#1 741201990#2 741201990#3" >
    </route>
    <route id="pt_bus_14:1" edges="-741201990#3 -741201990#2 -741201990#1 -741201990#0 -339736822#3 -339736822#2 -339736822#1 -339736822#0 -363081449#4 -363081449#3 -363081449#2 -363081449#1 -363081449#0 406017622#0 406017622#1 406017622#3 406017622#4 406017622#5 697770118#1 697770118#2 697770118#3 697770118#4 697770118#5 697770118#6 697770118#7 697770118#8" >
    </route>
    <route id="pt_bus_7:1" edges="-15389819#5 -15389819#4 -15389819#2 -15389819#1 -15389819#0 27024380 442773112#0 442773112#1 115229320#0 115229320#1 115229320#2 447214435 174955280#1 174955280#2 174955280#3 174955279 684607203#0 684607203#1 475020758#0 475020758#1 475020758#2 475020758#3 475020758#4 475020758#5 475020758#7 533535799 770887940#0 770887940#1 758220776 -691254185 -782860080 -20437767#1 -20437767#0 22737007#0 22737007#1" >
        <stop busStop="1855952971" duration="30.00" until="136.0"/> <!-- Bois des Rames -->
        <stop busStop="6414402746" duration="30.00" until="217.0"/> <!-- De Broglie -->
        <stop busStop="6414402745" duration="30.00" until="285.0"/> <!-- Lieu de Vie -->
        <stop busStop="-6414402744" duration="30.00" until="365.0"/> <!-- Université Paris-Saclay -->
    </route>
    <route id="pt_bus_7:0" edges="20437760#0 20437760#1 20437767#0 20437767#1 782860080 691254185 -758220776 -758220777 -770887940#0 -533535799 -475020758#7 -475020758#5 -475020758#4 -475020758#3 -475020758#2 -475020758#1 -475020758#0 115229328 -174955280#3 -174955280#2 -174955280#1 -447214435 -115229320#2 -115229320#1 -115229320#0 -442773112#1 -442773112#0 115229330 233525235 15389819#0 15389819#1 15389819#2 15389819#4 15389819#5" >
        <stop busStop="1722770104" duration="30.00" until="69.0"/> <!-- Université Paris-Saclay -->
        <stop busStop="-6414402742" duration="30.00" until="150.0"/> <!-- Lieu de Vie -->
        <stop busStop="-1855952972" duration="30.00" until="220.0"/> <!-- De Broglie -->
        <stop busStop="-677507133" duration="30.00" until="301.0"/> <!-- Bois des Rames -->
    </route>
    <route id="pt_bus_10:1" edges="260325008 134237556 -832745416#2 832745420#1 832749271 414507699 414507700#0 414507700#1 414507702#1 261656893 20437812#0 20437812#1 414507698 697667210 609807964 618971107#1 605051699#5 605051699#6 605051699#1 605051699#2 609807962 541365489 746815354 746815353 534486156 436119958 741972942 746815352" >
        <stop busStop="5905118364@2393298" duration="30.00" until="234.0"/> <!-- Raoul Dautry - CEA Porte Est -->
    </route>
    <route id="pt_bus_10:0" edges="746815354 746815353 534486156 436119958 741972942 746815352 746815351 -436113242#0 605051699#3 618971108#0 -609807964 -609807963 -414507701 20437822#0 20437822#1 -261656893 -414507702#1 -414507702#0 -414507700#0 -414507699 832745415#0 832745414#1 -134237556 -260325008" >
        <stop busStop="5905118364@2393297" duration="30.00" until="141.0"/> <!-- Raoul Dautry - CEA Porte Est -->
    </route>
    <route id="pt_bus_10:2" edges="42724038#0 42724038#1 134237556 -832745416#2 832745420#1 832749271 414507699 414507700#0 414507700#1 414507702#1 261656893 20437812#0 20437812#1 414507698 697667210 609807964 618971107#1 605051699#5 605051699#6 605051699#1 605051699#2 609807962 541365489 746815354 746815353 534486156 436119958 741972942 746815352" >
        <stop busStop="5905118364@2393298" duration="30.00" until="266.0"/> <!-- Raoul Dautry - CEA Porte Est -->
    </route>
    <route id="pt_bus_8:0" edges="696788631 140997949 140997933 60844538 140997942 37523270#0 37523270#1 37523270#2 233525227 37520995 -380969252 -164014447 97236180#0 22766391#0 22766391#1 22766391#3 47463290#0 47463290#1" >
        <stop busStop="1363114625" duration="30.00" until="62.0"/> <!-- Martinière -->
        <stop busStop="1429827410" duration="30.00" until="196.0"/> <!-- Buisson -->
        <stop busStop="-1429827411" duration="30.00" until="268.0"/> <!-- Aristide Briand -->
        <stop busStop="1420980850" duration="30.00" until="338.0"/> <!-- École du Guichet -->
    </route>
    <route id="pt_bus_91-11:1" edges="-26611452 -392689405 26611562 158082088#5 26611589#0 26611589#1 -414507707 -174970470#6 -174970470#3 -174970470#2 -174970470#0 -414507705 -423114712 -414507708 -414507706 -160212545#0 -414507704#1 -414507704#0 -414507703 -677368054#1 -677368054#0 -720559652 857723146 720559648 720559650#0 720559649 20437831 782693445 20437833#0 96000893#2 541344750 618971110 96000896#0 96000896#1 96000896#2 -554317503#2 -554317503#1 -554317503#0" >
        <stop busStop="-8105460805" duration="30.00" until="216.0"/> <!-- La Martinière -->
        <stop busStop="-1341753267" duration="30.00" until="251.0"/> <!-- La Martinière -->
        <stop busStop="1722769927" duration="30.00" until="361.0"/> <!-- Le Christ de Saclay -->
        <stop busStop="1894213657" duration="30.00" until="479.0"/> <!-- CEA Porte Nord -->
    </route>
    <route id="pt_train_B:0" edges="30037881" >
        <stop busStop="635550116" duration="30.00" until="143.0"/> <!-- Lozère (voie 1) -->
    </route>
    <route id="pt_bus_16:1" edges="61884384 61935857#0 61935857#1 61935857#2 61935857#3 61935857#4 61935857#5 -423114711#2 -423114711#1 -423114711#0 22763060#0 22763060#1 22763060#2 -414507706 -22736355#6 -22736355#4 -22736355#3 -22736355#2 -22736355#1 -22736355#0 -482015497#4 -482015497#3 -482015497#2 -482015497#1 -482015497#0 -119870351#2 -119870351#1 -119870351#0" >
        <stop busStop="-1722769930" duration="30.00" until="174.0"/> <!-- Martinière -->
        <stop busStop="-1722769969" duration="30.00" until="232.0"/> <!-- Mairie de Saclay -->
    </route>
    <route id="pt_bus_91-11:0" edges="554317503#0 554317503#1 554317503#2 96000895#0 96000895#1 96000895#2 741703406 720574245#0 857725441 741703401 720559662 720559650#2 720559650#3 720559650#4 720559656 720559652 677368054#0 677368054#1 414507703 414507704#0 414507704#1 160212545#0 414507706 414507708 423114712 414507705 174970470#0 174970470#1 174970470#3 174970470#5 414507707 26611620#0 26611620#1 158082088#1 158082088#2 158082088#3 26611556 392689405 26611452" >
        <stop busStop="1482218088" duration="30.00" until="149.0"/> <!-- CEA Porte Nord -->
        <stop busStop="6551894431" duration="30.00" until="260.0"/> <!-- Christ de Saclay -->
        <stop busStop="1341753310" duration="30.00" until="405.0"/> <!-- La Martinière -->
        <stop busStop="1341753421" duration="30.00" until="444.0"/> <!-- La Martinière -->
    </route>
    <route id="pt_bus_16:0" edges="119870351#0 119870351#1 119870351#2 482015497#0 482015497#1 482015497#2 482015497#3 482015497#4 22736355#0 22736355#1 22736355#2 22736355#3 22736355#4 22736355#6 414507706 414507708 117563152 538209283 423114711#0 423114711#1 423114711#2 -61935857#5 -61935857#4 -61935857#3 -61935857#2 -61935857#1 -61935857#0 -61884384" >
        <stop busStop="5210102792" duration="30.00" until="69.0"/> <!-- Mairie de Saclay -->
        <stop busStop="1341753421" duration="30.00" until="175.0"/> <!-- La Martinière -->
    </route>
    <route id="pt_train_B:1" edges="30037881" >
        <stop busStop="635550116" duration="30.00" until="177.0"/> <!-- Lozère (voie 1) -->
    </route>
    <route id="pt_train_B:3" edges="103240673" >
        <stop busStop="1192019234" duration="30.00" until="60.0"/> <!-- Le Guichet (voie 2) -->
        <stop busStop="5836393503" duration="30.00" until="207.0"/> <!-- Lozère (voie 2) -->
    </route>
    <route id="pt_bus_91-08:1" edges="326226466 145831277#1 145831277#2 145831277#3 274428499 606974222 22737003 697183355#6 697183355#7 697183355#8 20437760#0 20437760#1 20437767#0 20437767#1 -20437767#1 -20437767#0 22737007#0 22737007#1 697183355#0 697183355#1 697183355#2 697183355#3 697183355#4 22737019 131339233 697865649" >
        <stop busStop="1722770104" duration="30.00" until="206.0"/> <!-- Université Paris-Saclay -->
        <stop busStop="1732826814" duration="30.00" until="396.0"/> <!-- Gare du Guichet RER -->
    </route>
    <route id="pt_train_B:2" edges="30037881" >
        <stop busStop="635550116" duration="30.00" until="211.0"/> <!-- Lozère (voie 1) -->
    </route>
    <route id="pt_bus_91-08:4" edges="326226466 145831277#1 145831277#2 145831277#3 274428499 606974222 697848280 131339233 697865649" >
        <stop busStop="1732826814" duration="30.00" until="217.0"/> <!-- Gare du Guichet RER -->
    </route>
    <route id="pt_train_B:4" edges="103240673" >
        <stop busStop="1192019234" duration="30.00" until="85.0"/> <!-- Le Guichet (voie 2) -->
        <stop busStop="5836393503" duration="30.00" until="235.0"/> <!-- Lozère (voie 2) -->
    </route>
    <route id="pt_train_B:5" edges="103240673" >
        <stop busStop="1192019234" duration="30.00" until="60.0"/> <!-- Le Guichet (voie 2) -->
        <stop busStop="5836393503" duration="30.00" until="207.0"/> <!-- Lozère (voie 2) -->
    </route>
    <route id="pt_bus_91-08:0" edges="362262996 24341374 164014459 -22764742#0 -22764741#1 -22764741#0 -22764743#0 140038552#0 164014452#1 164014452#2 135702200#0 135702200#1 15229937#3 47463134#0 47463134#1 47463134#2 47463134#3 697712600#1 -701943514 -174970474#1 47463090#1 701943519 701943518 701943517 701943516 701943515 131340350#0 131340350#1 15229937#5 15229937#6 15229955 143311245#0 143311245#1 527943457#1 219752764#0 219752764#1 219752764#2 219752764#3 44848109#0 44848109#1 715087202#0 715087202#1 581669019 581669017#2 581669017#3 581669017#4 581669014#0 -446506377#2 -446506377#1 -22737021#1 22737008#0 -691254185 -782860080 -20437767#1 -20437767#0 22737007#0 22737007#1 697183355#0 697183355#1 697183355#2 22736998 22737000 22737001#0 22737001#1 697183346#1 697183346#2 697183346#3 697183346#4 697183346#5 697183346#6 22737015 606974223 606974219 606974212#0 606974212#1 606974210 720559657 606996749#1 606996744 606996738 145831268 606996733" >
        <stop busStop="1732826840" duration="30.00" until="189.0"/> <!-- Gare du Guichet RER -->
        <stop busStop="-6414402744" duration="30.00" until="508.0"/> <!-- Université Paris-Saclay -->
    </route>
    <route id="pt_bus_91-08:3" edges="326226466 145831277#1 145831277#2 145831277#3 274428499 606974222 22737003 697183355#6 697183355#7 697183355#8 20437760#0 20437760#1 20437767#0 20437767#1 782860080 691254185 -22737008#1 22737021#1 446506378 455371646 455371645 -292491931#1 -292491931#0 393281020 263684087#0 263684087#1 263684087#2 263684087#3 263684088 -361585732#1 -361585732#0 361585734 408197311#0 408197311#2 219719294#6 219719294#7 219719294#8 408197311#8 408197311#10 697770118#1 697770118#2 697770118#3 697770118#4 697770118#5 697770118#6 697770118#7 697770118#8" >
        <stop busStop="1722770104" duration="30.00" until="221.0"/> <!-- Université Paris-Saclay -->
        <stop busStop="-6551894423" duration="30.00" until="448.0"/> <!-- Corbeville -->
        <stop busStop="6551894422" duration="30.00" until="573.0"/> <!-- Palaiseau - Campus -->
    </route>
    <route id="pt_bus_8:1" edges="-47463290#1 -47463290#0 -47463291 -22766391#2 -22766391#0 97236158#1 97236164 380969252 142757141#0 142757141#1 -60844541#1 -60844541#0 -233525228#1 -233525228#0 37520995 -380969252 -164014447 97236180#0 -131335283 -164014457#1 -164014457#0 39325738 39325781#1 392575750 362262995 22737018 392575756 370956706 697183346#8 697183346#0 697183346#1 697183346#2 697183346#3 55429103 55429077#0 393281020 263684087#0 263684087#1 263684087#2 263684087#3 263684088 263684089 -47519280#8 -47519280#7 -47519280#3 -47519280#0 -747059916 747059915#0 747059915#1 747059915#2 489344451#0 741142478 -548881044 -480645125 -140997946#0 -140997942 -60844538 26824603 380969254 26824594" >
        <stop busStop="-6558738846" duration="30.00" until="49.0"/> <!-- École du Guichet -->
        <stop busStop="3842587705" duration="30.00" until="135.0"/> <!-- Aristide Briand -->
        <stop busStop="-3833357079" duration="30.00" until="212.0"/> <!-- Châteaufort -->
        <stop busStop="1363114626" duration="30.00" until="815.0"/> <!-- Corniche -->
    </route>
    <route id="pt_bus_91-08:2" edges="697770152 376385690#0 376385690#1 376385690#2 376385690#3 376385690#4 376385690#5 -697839700 -219719294#9 -219719294#8 -219719294#7 -219719294#6 -408197311#3 -408197311#0 -450271743 -219719294#0 361585732#1 -263684088 -263684087#3 -263684087#2 -263684087#1 -263684087#0 -393281020 722225470 292491931#1 440954769 -455371646 -446506378 -22737021#1 22737008#0 -691254185 -782860080 -20437767#1 -20437767#0 22737007#0 22737007#1 697183355#0 697183355#1 697183355#2 22736998 22737000 22737001#0 22737001#1 697183346#1 697183346#2 697183346#3 697183346#4 697183346#5 697183346#6 22737015 606974223 606974219 606974212#0 606974212#1 606974210 720559657 606996749#1 606996744 606996738 145831268 606996733" >
        <stop busStop="-6551894447" duration="30.00" until="233.0"/> <!-- Palaiseau - Campus -->
        <stop busStop="1114038111" duration="30.00" until="353.0"/> <!-- Corbeville -->
        <stop busStop="-6414402744" duration="30.00" until="599.0"/> <!-- Université Paris-Saclay -->
    </route>
    <route id="pt_bus_11:1" edges="260325008 134237556 -832745416#2 832745425#1 832654536#0 832749273#1 -48832578 134889168#0 134889168#3 134889168#4 134889167#0 134889167#1 455371648#2 399859419#0 399859419#1 720845271 20437797#1 20437797#2 20437797#3 20437797#4 -383176690#4 -383176690#3 -383176690#2 -383176690#1 -383176690#0 -408883117 -174955284#2 -174955284#1 -174955284#0 -417206210#2 -417206210#1 -417206210#0 -174955283#8 -174955283#7 -174955283#6 -174955283#5 -174955283#3 -174955283#2 -174955283#0 -475020758#7 -475020758#5 -475020758#4 -475020758#3 -475020758#2 -475020758#1 -475020758#0 -684607203#1 -684607203#0 -20437787 -745161146" >
        <stop busStop="6451425153" duration="30.00" until="325.0"/> <!-- Joliot Curie -->
        <stop busStop="-6451425151" duration="30.00" until="393.0"/> <!-- CentraleSupélec -->
        <stop busStop="-6414402742" duration="30.00" until="469.0"/> <!-- Lieu de Vie -->
    </route>
    <route id="pt_bus_11:0" edges="134233673#0 134233673#2 745161146 20437787 684607203#0 684607203#1 475020758#0 475020758#1 475020758#2 475020758#3 475020758#4 475020758#5 475020758#7 174955283#0 174955283#2 174955283#3 174955283#5 174955283#6 174955283#7 174955283#8 417206210#0 417206210#1 417206210#2 174955284#0 174955284#1 174955284#2 408883117 383176690#0 383176690#1 383176690#2 383176690#3 383176690#4 -20437797#4 -20437797#3 -20437797#2 -20437797#1 -720845271 -399859419#1 -399859419#0 -455371648#2 -134889167#1 -134889167#0 67046099 832749277#0 832749277#1 832749277#2 48832572 832749276 832749275#0 -832745421#3 832654537#2 261120353#0 832745414#1 -134237556 -260325008" >
        <stop busStop="6414402746" duration="30.00" until="65.0"/> <!-- De Broglie -->
        <stop busStop="6414402745" duration="30.00" until="133.0"/> <!-- Lieu de Vie -->
        <stop busStop="6451425150" duration="30.00" until="210.0"/> <!-- CentraleSupélec -->
        <stop busStop="-6451425152" duration="30.00" until="280.0"/> <!-- Joliot Curie -->
        <stop busStop="-1345294971" duration="30.00" until="432.0"/> <!-- Orme des Merisiers -->
    </route>
    <route id="pt_bus_91-06:1" edges="-741201990#3 -741201990#2 -741201990#1 -741201990#0 -489344451#1 -489344451#0 867981793 406513809#0 406513809#1 406017622#0 406017622#1 406017622#3 406017622#4 406017622#5 -697839700 -219719294#9 -219719294#8 -219719294#7 -219719294#6 -408197311#3 -408197311#0 -450271743 -219719294#0 361585732#1 -263684088 -263684087#3 -263684087#2 -263684087#1 -263684087#0 -393281020 722225470 292491931#1 440954769 -455371646 -446506378 -22737021#1 22737008#0 610270522#0 -863336412#4 863336412#4 610270522#1 606061323#0 606061323#1 606061323#2 606061323#3 -863336412#2 -863336412#1 -863336412#0 -720845272#2 -720845272#1 -720845272#0 -832745421#10 -832745421#9 -832745421#8 -134889167#1 -134889167#0 67046099 832749277#0 832749277#1 832749277#2 48832572 832749276 832749275#0 -832745421#3 832654537#2 261120353#0 -293817953 -436119957#3 -436119957#2 -436119957#1 20437812#1 414507698 697667210 609807964 618971107#1 605051699#5 605051699#6 605051699#1 605051699#2 609807962 541365489 746815354" >
        <stop busStop="6938530459" duration="30.00" until="115.0"/> <!-- Ferme de la Vauve -->
        <stop busStop="-6938530461" duration="30.00" until="234.0"/> <!-- Place Marguerite Perey -->
        <stop busStop="-6551894447" duration="30.00" until="345.0"/> <!-- Palaiseau - Campus -->
        <stop busStop="1114038111" duration="30.00" until="464.0"/> <!-- Corbeville -->
        <stop busStop="-4096918910" duration="30.00" until="664.0"/> <!-- Université Paris-Saclay -->
        <stop busStop="-6551894444" duration="30.00" until="767.0"/> <!-- Moulon TCSP -->
        <stop busStop="-3980845786" duration="30.00" until="851.0"/> <!-- Joliot-Curie -->
        <stop busStop="-1345294971" duration="30.00" until="1004.0"/> <!-- Orme des Merisiers -->
        <stop busStop="-5905118384" duration="30.00" until="1176.0"/> <!-- Saint-Aubin -->
        <stop busStop="-5905124633" duration="30.00" until="1352.0"/> <!-- Mare du Vivier - CEA Porte Sud -->
        <stop busStop="-5905118364" duration="30.00" until="1517.0"/> <!-- Raoul Dautry - CEA Porte Est -->
    </route>
    <route id="pt_bus_9:0" edges="131339230 47463090#1 701943519 701943518 701943517 701943516 701943515 131340350#0 131340350#1 15229937#5 15229937#6 15229955 143311245#0 143311245#1 527943457#1 219752764#0 219752764#1 219752764#2 219752764#3 44848109#0 44848109#1 715087202#0 715087202#1 581669019 581669017#2 22736997#0 22736997#1 697183355#2 697183355#3 697183355#4 697183355#5 697183355#6 697183355#7 697183355#8 20437760#0 20437760#1 20437767#0 20437767#1 -863336412#5 -863336412#4 863336412#4 610270522#1 606061323#0 606061323#1 606061323#2 606061323#3 -863336412#2 -863336412#1 -863336412#0 -720845272#2 -720845272#1 -720845272#0 -832745421#10 -832745421#9 -832745421#8 -134889167#1 -134889167#0 67046099 832749277#0 832749277#1 832749277#2 48832572 832749276 832749275#0 -832745421#3 832654537#2 261120353#0 -293817953 -436119957#3 -436119957#2 -436119957#1 20437812#1 414507698 697667210 609807964 618971107#1 605051699#5 605051699#6 741972944#0 857725441 741703401 720559662 720559650#2 720559650#3 720559650#4 720559656 720559652 677368054#0 677368054#1 414507703 414507704#0 414507704#1 160212545#0 -22736355#6 -22736355#4 -22736355#3 -22736355#2 -22736355#1 -22736355#0 -482015497#4 -482015497#3 -482015497#2 -482015497#1 -482015497#0 -119870351#2 -119870351#1 -119870351#0" >
        <stop busStop="1732826824" duration="30.00" until="73.0"/> <!-- Gare du Guichet -->
        <stop busStop="1420982408" duration="30.00" until="182.0"/> <!-- Versailles -->
        <stop busStop="1114038113" duration="30.00" until="259.0"/> <!-- Mûriers -->
        <stop busStop="1335923953" duration="30.00" until="380.0"/> <!-- Plateau de Moulon - Corbeville -->
        <stop busStop="-4096918910" duration="30.00" until="469.0"/> <!-- Université Paris-Saclay -->
        <stop busStop="-6551894444" duration="30.00" until="573.0"/> <!-- Moulon TCSP -->
        <stop busStop="-3980845786" duration="30.00" until="657.0"/> <!-- Joliot-Curie -->
        <stop busStop="-1345294971" duration="30.00" until="810.0"/> <!-- Orme des Merisiers -->
        <stop busStop="-5905118384" duration="30.00" until="983.0"/> <!-- Saint-Aubin -->
        <stop busStop="-5905124633" duration="30.00" until="1194.0"/> <!-- Mare du Vivier - CEA Porte Sud -->
        <stop busStop="-5905118364" duration="30.00" until="1358.0"/> <!-- Raoul Dautry - CEA Porte Est -->
        <stop busStop="-1722769930" duration="30.00" until="1663.0"/> <!-- Martinière -->
        <stop busStop="-1722769969" duration="30.00" until="1720.0"/> <!-- Mairie de Saclay -->
    </route>
    <route id="pt_bus_9:2" edges="-20442961#1 -20442961#0 20442963#0 20442963#1 20442963#2 20437823 741972943 605051699#2 605051699#3 618971108#0 -609807964 -609807963 -414507701 20437822#0 436119957#1 436119957#2 436119957#3 293817953 832745425#1 832654536#0 832745421#3 134889168#3 134889168#4 134889167#0 134889167#1 455371648#2 399859419#0 399859419#1 720845271 -720845271 404277029#0 404277029#1 -404275706#3 -404275706#2 863336412#0 863336412#1 863336412#2 -606061323#4 -606061323#2 -606061323#1 -606061323#0 -610270522#1 -863336412#4 863336412#4 -610270522#0 -22737008#1 22737021#1 446506377#1 446506377#2 581669015#1 581669017#6 581669016 -715087202#1 -715087202#0 -44848109#1 -44848109#0 -219752764#3 -219752764#2 -219752764#1 -219752764#0 -527943457#1 -143311245#2 -143311245#0 143311247 15229937#1 15229937#2 15229937#3 47463134#0 47463134#1 47463134#2 47463134#3 697712600#1 -701943514" >
        <stop busStop="6551894431@7886546" duration="30.00" until="190.0"/> <!-- Christ de Saclay -->
        <stop busStop="5905123676" duration="30.00" until="350.0"/> <!-- Raoul Dautry - CEA Porte Est -->
        <stop busStop="5905118351" duration="30.00" until="514.0"/> <!-- Mare du Vivier - CEA Porte Sud -->
        <stop busStop="6551894428" duration="30.00" until="657.0"/> <!-- Saint-Aubin -->
        <stop busStop="1345294973" duration="30.00" until="798.0"/> <!-- Orme des Merisiers -->
        <stop busStop="-6552378820" duration="30.00" until="940.0"/> <!-- Joliot-Curie -->
        <stop busStop="6551894425" duration="30.00" until="1037.0"/> <!-- Moulon TCSP -->
        <stop busStop="6551894424" duration="30.00" until="1141.0"/> <!-- Université Paris-Saclay -->
        <stop busStop="-6552378817" duration="30.00" until="1321.0"/> <!-- Mûriers -->
        <stop busStop="-1420982413" duration="30.00" until="1383.0"/> <!-- Versailles -->
    </route>
    <route id="pt_bus_91-10:0" edges="-741201990#3 -741201990#2 -741201990#1 -741201990#0 -489344451#1 -489344451#0 867981793 406513809#0 406513809#1 406017622#0 406017622#1 406017622#3 406017622#4 406017622#5 -697839700 -219719294#9 -219719294#8 -219719294#7 -219719294#6 -408197311#3 -408197311#0 -450271743 -219719294#0 361585732#1 -263684088 -263684087#3 -263684087#2 -263684087#1 -263684087#0 -393281020 722225470 292491931#1 440954769 -455371646 -446506378 -22737021#1 22737008#0 610270522#0 -863336412#4 863336412#4 610270522#1 606061323#0 606061323#1 606061323#2 606061323#3 -863336412#2 -863336412#1 -863336412#0 -720845272#2 -720845272#1 -720845272#0 -832745421#10 -832745421#9 -832745421#8 -134889167#1 -134889167#0 67046099 832749277#0 832749277#1 832749277#2 48832572 832749276 832749275#0 -832745421#3 832654537#2 261120353#0 -293817953 -436119957#3 -436119957#2 -436119957#1 20437812#1 414507698 697667210 609807964 618971107#1 605051699#5 605051699#6 741972944#0 741972945 96000893#2 541344750 618971110 96000896#0 96000896#1 96000896#2 -554317503#2 -554317503#1 -554317503#0" >
        <stop busStop="6938530459" duration="30.00" until="121.0"/> <!-- Ferme de la Vauve -->
        <stop busStop="-6938530461" duration="30.00" until="240.0"/> <!-- Place Marguerite Perey -->
        <stop busStop="-6551894447" duration="30.00" until="350.0"/> <!-- Palaiseau - Campus -->
        <stop busStop="1114038111" duration="30.00" until="469.0"/> <!-- Corbeville -->
        <stop busStop="-4096918910" duration="30.00" until="669.0"/> <!-- Université Paris-Saclay -->
        <stop busStop="-6551894444" duration="30.00" until="772.0"/> <!-- Moulon TCSP -->
        <stop busStop="-3980845786" duration="30.00" until="863.0"/> <!-- Joliot-Curie -->
        <stop busStop="-1345294971" duration="30.00" until="1017.0"/> <!-- Orme des Merisiers -->
        <stop busStop="-5905118384" duration="30.00" until="1249.0"/> <!-- Saint-Aubin -->
        <stop busStop="-5905124633" duration="30.00" until="1454.0"/> <!-- Mare du Vivier - CEA Porte Sud -->
        <stop busStop="-5905118364" duration="30.00" until="1619.0"/> <!-- Raoul Dautry - CEA Porte Est -->
        <stop busStop="1894213657" duration="30.00" until="1861.0"/> <!-- CEA Porte Nord -->
    </route>
    <route id="pt_bus_9:3" edges="701943517 701943516 701943515 131340350#0 131340350#1 15229937#5 15229937#6 15229955 143311245#0 143311245#1 527943457#1 219752764#0 219752764#1 219752764#2 219752764#3 44848109#0 44848109#1 715087202#0 715087202#1 581669019 581669017#2 581669017#3 581669017#4 581669014#0 -446506377#2 -446506377#1 -22737021#1 22737008#0 610270522#0 -863336412#4 863336412#4 610270522#1 606061323#0 606061323#1 606061323#2 606061323#3 -863336412#2 -863336412#1 -863336412#0 -720845272#2 -720845272#1 -720845272#0 -832745421#10 -832745421#9 -832745421#8 -134889167#1 -134889167#0 67046099 832749277#0 832749277#1 832749277#2 48832572 832749276 832749275#0 -832745421#3 832654537#2 261120353#0 -293817953 -436119957#3 -436119957#2 -436119957#1 20437812#1 414507698 697667210 609807964 618971107#1 605051699#5 605051699#6 741972944#0 741972945 20437840#0 20437840#1 20437840#2 20442961#0 20442961#1" >
        <stop busStop="1420982408" duration="30.00" until="121.0"/> <!-- Versailles -->
        <stop busStop="1114038113" duration="30.00" until="198.0"/> <!-- Mûriers -->
        <stop busStop="-4096918910" duration="30.00" until="372.0"/> <!-- Université Paris-Saclay -->
        <stop busStop="-6551894444" duration="30.00" until="475.0"/> <!-- Moulon TCSP -->
        <stop busStop="-3980845786" duration="30.00" until="570.0"/> <!-- Joliot-Curie -->
        <stop busStop="-1345294971" duration="30.00" until="723.0"/> <!-- Orme des Merisiers -->
        <stop busStop="-5905118384" duration="30.00" until="944.0"/> <!-- Saint-Aubin -->
        <stop busStop="-5905124633" duration="30.00" until="1149.0"/> <!-- Mare du Vivier - CEA Porte Sud -->
        <stop busStop="-5905118364" duration="30.00" until="1342.0"/> <!-- Raoul Dautry - CEA Porte Est -->
    </route>
    <route id="pt_bus_91-06:0" edges="746815353 534486156 436119958 741972942 746815352 746815351 -436113242#0 605051699#3 618971108#0 -609807964 -609807963 -414507701 20437822#0 436119957#1 436119957#2 436119957#3 293817953 832745425#1 832654536#0 832745421#3 134889168#3 134889168#4 134889167#0 134889167#1 455371648#2 399859419#0 399859419#1 720845271 -720845271 404277029#0 404277029#1 -404275706#3 -404275706#2 863336412#0 863336412#1 863336412#2 -606061323#4 -606061323#2 -606061323#1 -606061323#0 -610270522#1 -863336412#4 863336412#4 -610270522#0 -22737008#1 22737021#1 446506378 455371646 455371645 -292491931#1 -292491931#0 393281020 263684087#0 263684087#1 263684087#2 263684087#3 263684088 -361585732#1 361585732#1 263684089 -47519280#8 -47519280#7 -47519280#3 -47519280#0 -747059916 747059915#0 747059915#1 747059915#2 867981793 406513809#0 406513809#1 406017622#0 406017622#1 406017622#3 406017622#4 406017622#5 -673347936#1 -408197311#9 -219719294#8 219719294#8 219719294#9 697839700 404287181#0 404287181#1 404287181#2 404287181#4 -747059917 363081449#0 363081449#1 363081449#2 363081449#3 363081449#4 339736822#0 339736822#1 339736822#2 339736822#3 741201990#0 741201990#1 741201990#2 741201990#3" >
        <stop busStop="5905123676" duration="30.00" until="164.0"/> <!-- Raoul Dautry - CEA Porte Est -->
        <stop busStop="5905118351" duration="30.00" until="328.0"/> <!-- Mare du Vivier - CEA Porte Sud -->
        <stop busStop="6551894428" duration="30.00" until="471.0"/> <!-- Saint-Aubin -->
        <stop busStop="1345294973" duration="30.00" until="649.0"/> <!-- Orme des Merisiers -->
        <stop busStop="-6552378820" duration="30.00" until="801.0"/> <!-- Joliot-Curie -->
        <stop busStop="6551894425" duration="30.00" until="898.0"/> <!-- Moulon TCSP -->
        <stop busStop="6551894424" duration="30.00" until="1003.0"/> <!-- Université Paris-Saclay -->
        <stop busStop="-6551894423" duration="30.00" until="1220.0"/> <!-- Corbeville -->
        <stop busStop="6938530460" duration="30.00" until="1444.0"/> <!-- Ferme de la Vauve -->
        <stop busStop="6551894422" duration="30.00" until="1713.0"/> <!-- Palaiseau - Campus -->
        <stop busStop="6938530462" duration="30.00" until="1831.0"/> <!-- Place Marguerite Perey -->
    </route>