<additional>
  <flow type="car" id="polytech_personnel_carflow_d128_0" begin="0.0" end="600.0" from="134889167#1" to="174955283#6" number="1"/>
  <flow type="car" id="polytech_personnel_carflow_d128_south_0" begin="0.0" end="600.0" from="-55429077#0" to="174955283#6" number="5"/>
  <flow type="car" id="polytech_personnel_carflow_d446_0" begin="0.0" end="600.0" from="44848109#1" to="174955283#6" number="3"/>
  <flow type="car" id="polytech_personnel_carflow_nicolas_0" begin="0.0" end="600.0" from="446506377#2" to="174955283#6" number="0"/>
  <flow type="car" id="polytech_personnel_carflow_n118_0" begin="0.0" end="600.0" from="22737005#1" to="174955283#6" number="5"/>
  <flow type="car" id="polytech_personnel_carflow_d128_1" begin="600.0" end="1200.0" from="134889167#1" to="174955283#6" number="8"/>
  <flow type="car" id="polytech_personnel_carflow_d128_south_1" begin="600.0" end="1200.0" from="-55429077#0" to="174955283#6" number="25"/>
  <flow type="car" id="polytech_personnel_carflow_d446_1" begin="600.0" end="1200.0" from="44848109#1" to="174955283#6" number="13"/>
  <flow type="car" id="polytech_personnel_carflow_nicolas_1" begin="600.0" end="1200.0" from="446506377#2" to="174955283#6" number="2"/>
  <flow type="car" id="polytech_personnel_carflow_n118_1" begin="600.0" end="1200.0" from="22737005#1" to="174955283#6" number="25"/>
  <flow type="car" id="polytech_personnel_carflow_d128_2" begin="1200.0" end="1800.0" from="134889167#1" to="174955283#6" number="1"/>
  <flow type="car" id="polytech_personnel_carflow_d128_south_2" begin="1200.0" end="1800.0" from="-55429077#0" to="174955283#6" number="5"/>
  <flow type="car" id="polytech_personnel_carflow_d446_2" begin="1200.0" end="1800.0" from="44848109#1" to="174955283#6" number="3"/>
  <flow type="car" id="polytech_personnel_carflow_nicolas_2" begin="1200.0" end="1800.0" from="446506377#2" to="174955283#6" number="0"/>
  <flow type="car" id="polytech_personnel_carflow_n118_2" begin="1200.0" end="1800.0" from="22737005#1" to="174955283#6" number="5"/>
</additional>
