<?xml version="1.0" encoding="UTF-8"?>

<!-- generated on 01/26/21 17:28:10 by Eclipse SUMO duarouter Version 1.8.0
<configuration xmlns:xsi="http://www.w3.org/2001/XMLSchema-instance" xsi:noNamespaceSchemaLocation="http://sumo.dlr.de/xsd/duarouterConfiguration.xsd">

    <input>
        <net-file value="osm.net.xml"/>
        <route-files value="osm.passenger.trips.xml"/>
    </input>

    <output>
        <output-file value="routes.rou.xml"/>
        <alternatives-output value="routes.rou.alt.xml"/>
    </output>

    <time>
        <begin value="0"/>
        <end value="3600"/>
    </time>

    <report>
        <no-warnings value="true"/>
        <ignore-errors value="true"/>
        <no-step-log value="true"/>
    </report>

</configuration>
-->

<routes xmlns:xsi="http://www.w3.org/2001/XMLSchema-instance" xsi:noNamespaceSchemaLocation="http://sumo.dlr.de/xsd/routes_file.xsd">
    <vType id="veh_passenger" vClass="passenger"/>
    <vehicle id="veh1" type="veh_passenger" depart="2.97" departLane="best">
        <route edges="42294992#1 -369007492#1 -42294993#3 -42294993#2 -42294993#1 -42294993#0 -23791681#1 -23791681#0 -67411767#1 -67411767#0 174955289 174955293#0 174955293#1 -55874609#2 -55874609#1 -55874609#0 -42487710#1 -42487710#0 -233525232#1 -233525232#0 -164014450 -164014451#0 -140038551#0 164014453#0 140038552#0 164014452#1 164014452#2 135702200#0 135702200#1 15229937#3 15229937#4 15229937#5 15093785#0 15093785#1 15093785#3 66967887 697865649 23795593"/>
    </vehicle>
    <vehicle id="veh2" type="veh_passenger" depart="5.94" departLane="best" departSpeed="max">
        <route edges="606974222 22737003 697183355#6 697183355#7 697183355#8 697183355#9 697183355#0 22736996#0 22736996#1 581669017#4 581669014#0 -446506377#2 -446506377#1 -22737021#1 -22737021#0 22737023 22737020#9 22737020#0 22737020#1 22737020#2 22737020#3 22767300 745161147 134233673#0 134233673#2 745161146 174970475#0 -174970475#0"/>
    </vehicle>
    <vehicle id="veh3" type="veh_passenger" depart="8.90" departLane="best">
        <route edges="134230455#0 -134230455#0 392689407#10 399859418#3 22736995#0 22736995#1 697183355#8 697183355#9 697183355#0 22736996#0 22736996#1 581669017#4 581669017#5 581669017#6 581669016 -715087202#1 -715087202#0 -44848109#1 -44848109#0 -219752764#3 -219752764#2 -219752764#1 -219752764#0 -527943457#1 -143311245#2"/>
    </vehicle>
    <vehicle id="veh4" type="veh_passenger" depart="11.87" departLane="best">
        <route edges="-392689407#3 -758213442#1 -758213442#0 -758405105#1 -758405105#0 -404275706#3 -404275706#2 -404275706#0 -874840615 667143869#0 667143869#2 667143869#3 667143869#4 -606061323#7 -606061323#6 -134230455#5 -134230455#3 -134230455#2 -134230455#1 -134230455#0 392689407#10 399859418#3 22736995#0 22736995#1 697183355#8 697183355#9 697183355#0 22736996#0 22736996#1 581669017#4 581669017#5 581669017#6 581669016 -715087202#1 -715087202#0 -44848109#1 -44848109#0 -219752764#3 -219752764#2 -219752764#1 -219752764#0 -527943457#1 -143311245#2 143311247 15229937#1 15229937#2 15229937#3 47463134#0 47463134#2 47463134#3 697712600#1 -701943514 -174970474#1 -174970474#0 -131339230 -233525223#1 44848116#1 44848116#2 739173544#0 128130064#0 128130064#1 15229957#1"/>
    </vehicle>
    <vehicle id="veh5" type="veh_passenger" depart="14.84" departLane="best" departSpeed="max">
        <route edges="-142757141#1 -41656939#2 -41656939#1 -41656939#0 -42294196#0 22766391#3 47463290#0 47463290#1 47463290#2 80699620#3 -42472859#6 -42472859#5 -42472859#3 -37522069"/>
    </vehicle>
    <vehicle id="veh7" type="veh_passenger" depart="20.78" departLane="best">
        <route edges="-392689407#6 392689407#6 392689407#7 392689407#8 392689407#10 399859418#3 22736995#0 22736995#1 697183355#8 697183355#9 697183355#0 697183355#1 697183355#2 697183355#3 697183355#4 22737019 131339233 697865649 23795593 731187532 47464624 233525248 15229951#5 14464627#0 14464627#1 14464627#2 233525221#1 -15093773#1 -233525233 -458101428 -447214440 -233525234#3 -233525234#2 -233525234#1 -233525234#0 -375054587#1 14464606 14464596 174955282#0 174955282#1 684608919#0 684608919#1 684608919#2 447214436 447214439 14464617 -50637616#9 -50637616#6 -50637616#5 -50637616#4 -50637616#3 -50637616#2 -50637616#1 -50637616#0 -50648719#3 -50648719#2 -50648719#1 -50648719#0 -565300731#10 -565300731#9 -565300731#8 -565300731#5 -565300731#4 -565300731#3 -565300731#2 -565300731#1 -565300731#0 -184279494#1 -184279494#0 -369007476#1 -369007476#0 -23791996 -368672317#6 -368672317#5 -368672317#4 -368672317#3 -368672317#2 -368672317#1 -368672317#0 -370956704#9 -370956704#8 -370956704#7 -370956704#6 -370956704#5 -370956704#4 -370956704#2 -370956704#1 -370956704#0 -20441587 -20441580#1 -20441580#0 -447214445 368477969#0 20441576#0 20441576#1"/>
    </vehicle>
    <vehicle id="veh8" type="veh_passenger" depart="23.75" departLane="best">
        <route edges="520495295#1 -520495295#1 -520495295#0 -67411767#5 -67411767#4 -67411767#3 -67411767#2 -67411767#1 -67411767#0 174955289 174955293#0 174955293#1 -55874609#2 -55874609#1 -55874609#0 -42487710#1 -42487710#0 -233525232#1 -55874618#8 -55874618#7 -55874618#5 -55874618#4 -55874618#3 -55874618#2 -55874618#1 -55874618#0 15501885#0 -442773125#2 -442773125#1 -119617681"/>
    </vehicle>
    <vehicle id="veh9" type="veh_passenger" depart="26.71" departLane="best">
        <route edges="50648722#1 -50648722#1 -50648722#0 23791993#3 23791993#4 23791993#5 23791993#7 -67096966#0 -67198498 -174955296#5 -174955296#4 -174955296#2 -174955296#1 -174955296#0 -69344068#5 -69344068#4 -69344068#3 -69344068#2 -69344068#1 -69344068#0 -20441550#3 -20441550#1 -20441550#0 14464640#2 529399885#0 529399885#1 586907419 233525211#1 233525211#2 233525211#3 233525211#4 233525211#5 34074428 128131688 213560705 555826580#0 555826580#1 163585086#0 163585086#1 163585086#2 163585086#3 180964039#1 180964039#2 180964039#3 180964039#5 14464635#0 14464635#1 233525212#2 233525212#3 327148827"/>
    </vehicle>
    <vehicle id="veh10" type="veh_passenger" depart="29.68" departLane="best">
        <route edges="-606061323#4 -606061323#2 -606061323#1 -606061323#0 -610270522#1 -610270522#0 -758220776 -758220777 -770887940#0 -533535799 -475020758#7 -475020758#5 -475020758#4 -475020758#3 -475020758#2 -475020758#1 115229328 -174955280#2 37768338#0 37768338#1 442436506#0 442436506#1 174955294#0 174955294#1 447214443#0 447214443#1 442773123 233525235 15389819#0 15389819#1 15389819#2 15389819#4 15389819#5 15389819#6 442436512 447214444 67411728#0 174955289 68122526#0 68122526#1 67144889#0 23791684#0 23791684#1 23791684#2 23791684#3 23791684#4 23791684#5 -23791684#5 -23791684#4"/>
    </vehicle>
    <vehicle id="veh11" type="veh_passenger" depart="32.65" departLane="best">
        <route edges="697848280 131339233 697865649 23795593 731187532 47464624 233525248 15229951#5 14464627#0 14464627#1 14464627#2 233525221#1 -15093773#1 -128131688 -34074473 14464658#1 14464658#2 14464658#3 14464658#4 14464658#5 739173545#0 739173545#1 -739173544#0 -44848116#2 -44848116#1 233525223#0 131339230 174970474#0 174970474#1 701943514 162031199#0 131340350#0 131340350#1 15229937#5 15229937#6 15229955 143311245#1 -442773125#2 -442773125#1 -442773124 -55874620"/>
    </vehicle>
    <vehicle id="veh12" type="veh_passenger" depart="35.62" departLane="best">
        <route edges="-184279494#0 184279494#0 184279494#1 565300731#0 565300731#1 565300731#2 565300731#3 565300731#4 565300731#5 565300731#8 565300731#9 565300731#10 50648719#0 50648719#1 50648719#2 50648719#3 50637616#0 50637616#1 50637616#2 50637616#3 50637616#4 50637616#5 50637616#6 50637616#9 14464620#0 14464620#1 745481637#0 745481637#1 174955282#0 174955282#1 684608919#0 684608919#1 684608919#2 447214436 14464645 41591446 23788721#0 23788721#2 23788721#3 23788721#4 23788721#5 23788721#6 423969274#0 423969274#1 233525211#1 233525211#2 233525211#3 233525211#4 233525211#5 14464658#1 14464658#2 14464658#3 14464658#4 14464658#5 739173545#0 739173545#1 -739173544#0 -44848116#2 -44848116#1 -371232057 19881637#1 -19881637#1"/>
    </vehicle>
    <vehicle id="veh13" type="veh_passenger" depart="38.59" departLane="best" departSpeed="max">
        <route edges="55874617 219752764#3 44848109#0 44848109#1 715087202#0 715087202#1 581669019 581669017#2 22736997#0 22736997#1 697183355#2 697183355#3 697183355#4 697183355#5 697183355#6 22737005#0 22737005#1"/>
    </vehicle>
    <vehicle id="veh14" type="veh_passenger" depart="41.56" departLane="best">
        <route edges="174970475#3 174970475#4 442773115 -447214435 -115229320#2 -115229320#1 -115229320#0 -442773112#1 -442773112#0 115229330 233525235 15389819#0 15389819#1 15389819#2 15389819#4 15389819#5 15389819#6 442436512 447214444 67411728#0 174955289 68122526#0 68122526#1 67144889#0 67144889#1 67144889#3 174955296#0 174955296#1 174955296#2 174955296#4 174955296#5 67198498 67096966#0 67096966#1 67096966#2 67096966#3 67096966#4 67096966#5 67096966#6 67096966#7 553570319 67122011#0 67122011#1 67122011#2 -41591446 -14464645 447214439 14464617 14464620#0 14464620#1 745481637#0 745481637#1"/>
    </vehicle>
    <vehicle id="veh15" type="veh_passenger" depart="44.52" departLane="best">
        <route edges="-720845272#0 -720845271 404277029#0 404277029#1 -404275706#3 -404275706#2 -404275706#0 -874840615 667143869#0 667143869#2 667143869#3 667143869#4 -606061323#7 -606061323#6 -134230455#5 -134230455#3 -134230455#2 -134230455#1 -134230455#0 392689407#10 399859418#3 22736995#0 22736995#1 697183355#8 697183355#9 697183355#0 697183355#1 697183355#2 697183355#3 697183355#4 22737019 131339233 697865649 23795593 731187532 47464624 233525248 15229951#5 14464627#0 14464627#1 14464627#2 233525221#1 -15093773#1 213560705 555826580#0 555826580#1 163585086#0 163585086#1 163585086#2 163585086#3 180964039#1 180964039#2 180964039#3"/>
    </vehicle>
    <vehicle id="veh16" type="veh_passenger" depart="47.49" departLane="best">
        <route edges="544768661#2 -163585086#4 -163585086#2 -163585086#1 -163585086#0 -555826580#1 -555826580#0 -213560705 15093773#1 135929304#0 135929304#1 135929304#3 135929304#4 135929304#6 15229951#7 15229951#1 15229950#0 15229950#1 15229950#2 15229980#5 15229980#1 15229934#0 15229934#1 23795596 362262996#1 24341374 164014459 697849441#0 697849441#1 164014457#1 131335283 22766391#0 22766391#1 22766391#3"/>
    </vehicle>
    <vehicle id="veh17" type="veh_passenger" depart="50.46" departLane="best">
        <route edges="383176690#3 383176690#4 -20437797#4 -20437797#3 -20437797#2 -20437797#1 -720845271 404277029#0 404277029#1 -404275706#3 -404275706#2 -404275706#0 -874840615 667143869#0 667143869#2 667143869#3 667143869#4 -606061323#7 -606061323#6 -134230455#5 -134230455#3 -134230455#2 -134230455#1 -134230455#0 392689407#10 399859418#3 22736995#0 22736995#1 697183355#8 697183355#9 697183355#0 22736996#0 22736996#1 581669017#4 581669017#5 581669017#6 581669016 -715087202#1 -715087202#0 -44848109#1 -44848109#0 -219752764#3 -219752764#2 -219752764#1 -219752764#0 -527943457#1 -143311245#2 143311247 15229937#1 135702201#0 -164014452#2 -164014452#1 -140038552#0 22764743#0 233525237 22764741#1 22764742#0 697849441#0 697849441#1 164014457#1 131335283 97236158#1 97236164 380969252 -37520995 -233525227 -144929598 -144929478#1 -144929478#0"/>
    </vehicle>
    <vehicle id="veh18" type="veh_passenger" depart="53.43" departLane="best">
        <route edges="-406017624#1 -475020758#4 -475020758#3 -475020758#2 -475020758#1 115229328 -174955280#2 37768338#0 37768338#1 442436506#0 442436506#1 174955294#0 174955294#1 447214443#0 447214443#1 442773123 233525235 15389819#0 15389819#1 15389819#2 15389819#4 15389819#5 15389819#6 442436512 447214444 67411728#0 67411767#0 67411767#1 67411767#2 15229961#0 163623318#4 163623318#5 184279492#2 184279492#3 414947297#1 23791991#0 23791991#1 23791994 23791995#1 23791995#2 23791995#3 -565300731#10 -565300731#9 -565300731#8 -565300731#5 -565300731#4 -565300731#3 -565300731#2 -565300731#1 -565300731#0 -184279494#1 -184279494#0 -369007476#1 -369007476#0 -23791996 50648713#0 50648713#1 50648713#2 50648713#3 50648713#4 50648713#5 50648713#6 -50648713#6"/>
    </vehicle>
    <vehicle id="veh19" type="veh_passenger" depart="56.40" departLane="best">
        <route edges="-19926892#0 -14464622#3 -14464622#2 -14464622#1 533220439 15230009#1 15230009#2 -15230000#1 -15230000#0 80699620#1 80699620#2 -47463290#2 -47463290#1 -47463290#0 -47463291 -22766391#2 -22766391#0 -131335283 -164014457#1 -164014457#0 39325738 39325781#1 392575750 362262995 22737018 392575756 370956706 697183346#8 697183346#0 697183346#1 697183346#2 697183346#3 55429103 55429077#0 393281020 263684087#0 263684087#1 263684087#2 263684087#3 263684088 263684089 -47519280#6 -47519280#5"/>
    </vehicle>
    <vehicle id="veh20" type="veh_passenger" depart="59.36" departLane="best">
        <route edges="-69344068#1 69344068#1 69344068#2 69344068#3 69344068#4 69344068#5 -67144889#3 -67144889#1 -67144889#0 67144885#0 67144885#1 174955287 68122525 -442436512 -15389819#6 -15389819#5 -15389819#4 -15389819#2 -15389819#1 -15389819#0 -233525235 -442773123 -447214443#1 -447214443#0 -174955294#1 -174955294#0 -442436506#1 -442436506#0 -37768338#1 -37768338#0 174955280#2 174955279 684607203#0 684607203#1 475020758#1 475020758#2 475020758#3 475020758#4 475020758#5 475020758#7 174955283#0 174955283#2 174955283#3 174955283#5 174955283#6 174955283#7 174955283#8 417206210#0 417206210#1 417206210#2 174955284#0 174955284#1 174955284#2 408883117 383176690#0 383176690#1 383176690#2 383176690#3 383176690#4 383283745 383176691#0 383176691#2 383176691#3 -383176691#3"/>
    </vehicle>
    <vehicle id="veh21" type="veh_passenger" depart="62.33" departLane="best">
        <route edges="-447214443#0 447214443#0 447214443#1 442773123 233525235 15389819#0 15389819#1 15389819#2 15389819#4 15389819#5 15389819#6 442436512 447214444 67411728#0 67411767#0 67411767#1 67411767#2 15229961#0 163623318#4 163623318#5 184279492#2 184279492#3 414947297#1 23791991#0 23791991#1 23791994 23791995#1 23791995#2 23791995#3 -565300731#10 -565300731#9 -565300731#8 -565300731#5 -565300731#4 -565300731#3 -565300731#2 -565300731#1 -565300731#0 -184279494#1 -184279494#0 -369007476#1 -369007476#0 -23791996 -368672317#6 -368672317#5 -368672317#4 -368672317#3 -368672317#2 -368672317#1 -368672317#0 -370956704#9 -370956704#8 -370956704#7 -370956704#6 -370956704#5 -370956704#4 -370956704#2 -370956704#1 -370956704#0 -20441587 -20441580#1 -20441580#0 -447214445 368477969#0 368477969#3 368477969#4 696040927#0"/>
    </vehicle>
    <vehicle id="veh22" type="veh_passenger" depart="65.30" departLane="best">
        <route edges="23795596 362262996#1 697849872 392575750 362262995 22737018 392575756 370956706 697183346#8 96144335 -22737000 22736999 697183355#4 697183355#5 697183355#6 697183355#7 697183355#8 697183355#9 697183355#0 22736996#0 22736996#1 581669017#4 581669014#0 -446506377#2 -446506377#1 -22737021#1 -22737021#0 22737023 22737020#9 22737020#0 22737020#1"/>
    </vehicle>
    <vehicle id="veh24" type="veh_passenger" depart="71.24" departLane="best">
        <route edges="-23791993#2 23791993#2 23791993#3 23791993#4 23791993#5 23791993#7 -67096966#0 -67198498 -174955296#5 -174955296#4 -174955296#2 -174955296#1 -174955296#0 -67144889#3 -67144889#1 -67144889#0 67144885#0 67144885#1 174955287 68122525 -442436512 -15389819#6 -15389819#5 -15389819#4 -15389819#2 -15389819#1 -15389819#0 -233525235 -442773123 -447214443#1 -447214443#0 -174955294#1 -174955294#0 -442436506#1 -442436506#0 -37768338#1 -37768338#0 174955280#2 174955279 684607203#0 684607203#1 475020758#1 475020758#2 475020758#3 475020758#4 475020758#5 -647318805 684006411#1 684006411#2 684006411#3 -684006411#3"/>
    </vehicle>
    <vehicle id="veh25" type="veh_passenger" depart="74.21" departLane="best">
        <route edges="770887940#0 -770887940#0 -533535799 -475020758#7 -475020758#5 -475020758#4 -475020758#3 -475020758#2 -475020758#1 115229328 -174955280#2 37768338#0 37768338#1 442436506#0 442436506#1 174955294#0 174955294#1 447214443#0 447214443#1 442773123 233525235 15389819#0 15389819#1 15389819#2 15389819#4 15389819#5 15389819#6 442436512 447214444 67411728#0 67411767#0 67411767#1 67411767#2 15229961#0 163623318#4 163623318#5 184279492#2 184279492#3 414947297#1 23791991#0 23791991#1 23791994 23791995#1 23791995#2 23791995#3 -565300731#10 -565300731#9 -565300731#8 -565300731#5 -565300731#4 -565300731#3 -565300731#2 -565300731#1 -565300731#0 -184279494#1 -184279494#0 -369007476#1 -369007476#0 -23791996 50648713#0 50648713#1 50648713#2 50648713#3 50648713#4 233525222"/>
    </vehicle>
    <vehicle id="veh26" type="veh_passenger" depart="77.17" departLane="best">
        <route edges="20437797#4 -20437797#4 -20437797#3 -20437797#2 -20437797#1 -720845271 404277029#0 404277029#1 -404275706#3 -404275706#2 -404275706#0 -874840615 667143869#0 667143869#2 667143869#3 667143869#4 -606061323#7 -606061323#6 -134230455#5 -134230455#3 -134230455#2 -134230455#1 -134230455#0 392689407#10 399859418#3 22736995#0 22736995#1 697183355#8 697183355#9 697183355#0 697183355#1 697183355#2 22736998 22737000 22737001#0 22737001#1 697183346#1 697183346#2 697183346#3 55429103 55429077#0 393281020 263684087#0 263684087#1 263684087#2 263684087#3 263684088"/>
    </vehicle>
    <vehicle id="veh27" type="veh_passenger" depart="80.14" departLane="best">
        <route edges="55874613 22737020#3 22767300 745161147 134233673#0 134233673#2 745161146 174970475#0 174970475#1 174970475#2 174970475#3 174970475#4 442773115 447214434 42474484#0 42474484#1 42474484#2"/>
    </vehicle>
    <vehicle id="veh28" type="veh_passenger" depart="83.11" departLane="best">
        <route edges="-408197311#3 -408197311#1 -408197311#0 -450271743 -392689403#1 -392689403#0 -263684089 -263684088 -263684087#3 -263684087#2 -263684087#1 -263684087#0 -393281020 -55429077#0 26824741 697183346#5 697183346#6 697183346#7 697183346#8 96144335 -22737000 22736999 697183355#4 22737019 131339233 697865649 23795593 731187532 47464624 233525248 15229951#5 14464627#0 14464627#1 14464627#2 233525221#1 -15093773#1 -233525233 -458101428 -447214440 -233525234#3 -233525234#2 -233525234#1 -233525234#0 -375054587#1 14464606 14464596 -14464609#1 -14464609#0"/>
    </vehicle>
    <vehicle id="veh29" type="veh_passenger" depart="86.08" departLane="best" departSpeed="max">
        <route edges="-547101277 -233525213#0 -233525215 -50845386 15229980#1 15229980#2 15229980#3 15230012 15229951#3 15229951#4 15229951#5 14464627#0 14464627#1 14464627#2 233525221#1 -15093773#1 -128131688 -34074473 14464658#1 14464658#2 14464658#3 14464658#4 14464658#5 739173545#0 739173545#1 -739173544#0 -44848116#2 -44848116#1"/>
    </vehicle>
    <vehicle id="veh30" type="veh_passenger" depart="89.05" departLane="best">
        <route edges="-383176690#0 -408883117 -134233676#6 -134233676#5 -134233676#4 -134233676#2 -134233676#1 667143869#0 667143869#2 667143869#3 667143869#4 -606061323#7 -606061323#6 -134230455#5 -134230455#3 -134230455#2 -134230455#1 -134230455#0 392689407#10 399859418#3 22736995#0 22736995#1 697183355#8 697183355#9 697183355#0"/>
    </vehicle>
    <vehicle id="veh31" type="veh_passenger" depart="92.01" departLane="best">
        <route edges="581669015#1 581669017#6 581669017#1 581669017#2 22736997#0 22736997#1 697183355#2 697183355#3 697183355#4 22737019 131339233 697865649 23795593 731187532 47464624 233525248 15229951#5 14464627#0 14464627#1 14464627#2 233525221#1 -15093773#1 -233525233 -458101428 -447214440 -233525234#3 -233525234#2 -233525234#1 -233525234#0 -375054587#1 14464606 14464596 174955282#0 174955282#1 684608919#0 684608919#1 684608919#2 447214436 447214439 14464617 -50637616#9 -50637616#6 -50637616#5 -50637616#4 -50637616#3 -50637616#2 -50637616#1 -50637616#0 -50648719#3 -50648719#2 -50648719#1 -50648719#0 -565300731#10 -565300731#9 -565300731#8 -565300731#5 -565300731#4 -565300731#3 -565300731#2 -565300731#1 -565300731#0 -184279494#1 -184279494#0 -369007476#1 -369007476#0 -23791996 -368672317#6 -368672317#5 -368672317#4 -368672317#3 -368672317#2 -368672317#1 -368672317#0 -370956704#9 -370956704#8 -370956704#7 -370956704#6 -370956704#5 -370956704#4 -370956704#2 -370956704#1 -370956704#0 -20441587 233780861 -53644779"/>
    </vehicle>
    <vehicle id="veh33" type="veh_passenger" depart="97.95" departLane="best">
        <route edges="67411738 68122526#0 68122526#1 67144889#0 67144889#1 67144889#3 -69344068#5 -69344068#4 -69344068#3 -69344068#2 -69344068#1 -69344068#0 -20441550#3 -20441550#1 -20441550#0 14464640#2 529399885#0 529399885#1 586907419 233525211#1 233525211#2 233525211#3 233525211#4 233525211#5 14464658#1 -142758621#1 142758621#1"/>
    </vehicle>
    <vehicle id="veh34" type="veh_passenger" depart="100.92" departLane="best">
        <route edges="-447214434 447214434 42474484#0 42474484#1 42474484#2 -164014454 -164014455#1 -164014455#0 -374675896#1 55874618#5 55874618#7 55874618#8 -42474489#1 -42474489#0"/>
    </vehicle>
    <vehicle id="veh35" type="veh_passenger" depart="103.89" departLane="best" departSpeed="max">
        <route edges="20441568#0 20441568#1 20441568#2 -520495295#7 -520495295#6 -520495295#5 -520495295#4 -520495295#3 -520495295#2 -520495295#1 -520495295#0 -67411767#5 -67411767#4 -67411767#3 -67411767#2 -67411767#1 -67411767#0 68122525 -442436512 -15389819#6 -15389819#5 -15389819#4 -15389819#2 -15389819#1 -15389819#0 27024380 442773112#0 442773112#1 115229320#0 115229320#1 115229320#2 447214435 447214434 -447214434"/>
    </vehicle>
    <vehicle id="veh37" type="veh_passenger" depart="109.82" departLane="best" departSpeed="max">
        <route edges="-97050360#1 -97050360#0 131335282#0 131335282#1 131335282#2 131335282#4 -164014457#0 39325738 39325781#1 392575750 362262995 22737018 392575756 370956706 697183346#8 96144335 -22737000 22736999 697183355#4 697183355#5 697183355#6 22737005#0 22737005#1 -399859418#3 -399859418#0 134230455#0 134230455#1 134230455#2 134230455#3 134230455#4 606061323#5 606061323#7 -667143869#4 -667143869#3 -667143869#2 -667143869#0 874840615 404275706#0 404275706#1 404275706#3 -404277029#1 -404277029#0 -399859419#1 -399859419#0"/>
    </vehicle>
    <vehicle id="veh38" type="veh_passenger" depart="112.79" departLane="best">
        <route edges="97050361 -97050361 442773113 131335281#1 131335282#0 131335282#1 131335282#2 131335282#4 -164014457#0 -697849441#0 -22764742#0 -22764741#1 -22764741#0 -22764743#0 140038552#0 164014452#1 164014452#2 135702200#0 135702200#1 15229937#3 15229937#4 15229937#5 15093785#0 15093785#1 15093785#3 66967887 697865649 23795593 731187532 47464624 233525248 15229951#5 15229951#6 15229951#7 15229951#1 15229950#0 15229950#1 15229950#2 15229980#5"/>
    </vehicle>
    <vehicle id="veh39" type="veh_passenger" depart="115.76" departLane="best">
        <route edges="-180964039#5 -180964039#3 -180964039#2 -180964039#1 -163585086#4 -163585086#2 -163585086#1 -163585086#0 -555826580#1 -555826580#0 -213560705 15093773#1 135929304#0 135929304#1 135929304#3 135929304#4 135929304#6 15229951#7 15229951#1 15229950#0 15229950#1 15229950#2 15229980#5 15229980#1 15229934#0 15229934#1 23795596 362262996#1 24341374 164014459 697849441#0 697849441#1 164014457#1 131335283 97236158#1 97236164 380969252 -37520995 -233525227 -144929598"/>
    </vehicle>
    <vehicle id="veh41" type="veh_passenger" depart="121.70" departLane="best">
        <route edges="50637616#5 50637616#6 50637616#9 14464620#0 14464620#1 745481637#0 745481637#1 174955282#0 174955282#1 684608919#0 684608919#1 684608919#2 447214436 14464645 41591446 -67122011#2 -67122011#1 -67122011#0 -553570319 -67096966#7 -67096966#6 -67096966#5 -67096966#4 -67096966#3 -67096966#2 -67096966#1 -67096966#0 -67198498 -174955296#5 -174955296#4 -174955296#2 -174955296#1 -174955296#0 -67144889#3 -67144889#1 -67144889#0 67144885#0 67144885#1 174955287 68122525 -442436512 -15389819#6 -15389819#5 -15389819#4 -15389819#2 -15389819#1 -15389819#0 27024380 442773112#0 442773112#1 115229320#0 115229320#1 115229320#2 447214435 -442773115 -174970475#4 -174970475#3 -174970475#2 56008760#0 56008760#1 115229335 115229331"/>
    </vehicle>
    <vehicle id="veh42" type="veh_passenger" depart="124.67" departLane="best">
        <route edges="-163585086#1 -163585086#0 -555826580#1 -555826580#0 -213560705 15093773#1 135929304#0 135929304#1 135929304#3 135929304#4 135929304#6 15229951#7 15229951#1 15229950#0 15229950#1 15229950#2 15229980#5 15229980#1 15229934#0 15229934#1 23795596 362262996#1 697849872 392575750 362262995 22737018 392575756 370956706 697183346#8 96144335 -22737000 22736999 697183355#4 697183355#5 697183355#6 697183355#7 697183355#8 697183355#9 697183355#0 22736996#0 22736996#1 581669017#4 581669014#0 -446506377#2 -446506377#1 -22737021#1 -22737021#0 22737023 22737020#9 22737020#0 22737020#1 55874612 -20437774 20437771#3 20437771#0 20437771#1 -684006411#13 -684006411#12 -684006411#11 -684006411#10 -684006411#9 -684006411#8"/>
    </vehicle>
    <vehicle id="veh43" type="veh_passenger" depart="127.63" departLane="best">
        <route edges="90075240 83370318 83370314#0 83370314#1 83370314#2 75009997#0 75009997#1 75009997#2 -153002660#4 -153002660#3 -153002660#2 -153002660#0 297105558#1 297105558#2 297105558#3 297105558#4 297105558#5 297105558#6 297105558#8 297105558#9 -414947297#1 -184279492#3 -184279492#2 -163623318#5 -163623318#4 -42294993#3 -42294993#2 -42294993#1 -42294993#0 -23791681#1 -23791681#0 -67411767#1 -67411767#0 174955289 174955293#0 174955293#1 -55874609#2 -55874609#1 -55874609#0 -42487710#1 -42487710#0 -233525232#1 -233525232#0 -164014450 -164014451#0 -140038551#0 164014453#0"/>
    </vehicle>
    <vehicle id="veh44" type="veh_passenger" depart="130.60" departLane="best" departSpeed="max">
        <route edges="717926947#0 717926947#1 717926947#2 717926947#3 261623765 233525208#0 233525208#1 233525208#2 544768661#0 544768661#1 544768661#2 -163585086#4 -163585086#2 -163585086#1 -163585086#0 -555826580#1 -555826580#0 -213560705 15093773#1 135929304#0 135929304#1 135929304#3 135929304#4 135929304#6 15229951#7 15229951#1 15229950#0 15229950#1 15229950#2 15229980#5 15229980#1 15229934#0 15229934#1 23795596 362262996#1 697849872 392575750 362262995 22737018 392575756 370956706 697183346#8 96144335 -22737000 22736999 697183355#4 697183355#5 697183355#6 697183355#7 697183355#8 697183355#9 697183355#0 22736996#0 22736996#1 581669017#4 581669014#0 -446506377#2 -446506377#1 -22737021#1 -22737021#0 22737023 22737020#9 22737020#0 22737020#1 55874612 55874613"/>
    </vehicle>
    <vehicle id="veh45" type="veh_passenger" depart="133.57" departLane="best">
        <route edges="-134230455#0 392689407#10 399859418#3 22736995#0 22736995#1 697183355#8 697183355#9 697183355#0 697183355#1 697183355#2 697183355#3 697183355#4 22737019 131339233 697865649 23795593 731187532 47464624 233525248 15229951#5 14464627#0 14464627#1 14464627#2 233525221#1 -15093773#1 -233525233 -458101428 -447214440 -233525234#3 -233525234#2 -233525234#1 -233525234#0 -375054587#1 14464606 14464596 174955282#0 174955282#1 684608919#0 684608919#1 684608919#2 447214436 447214439 14464617 -50637616#9 -50637616#6 -50637616#5 -50637616#4 -50637616#3 -50637616#2 -50637616#1 -50637616#0 -50648719#3 -50648719#2 -50648719#1 -50648719#0 -565300731#10 -565300731#9 -565300731#8 -565300731#5 -565300731#4 -565300731#3 -565300731#2 -565300731#1 -565300731#0 -184279494#1 -184279494#0 -369007476#1 -369007476#0 -23791996 -368672317#6 -368672317#5 -368672317#4 -368672317#3 -368672317#2 -368672317#1 -368672317#0 -370956704#9 -370956704#8 -370956704#7 -370956704#6 -370956704#5 -370956704#4 370956704#4"/>
    </vehicle>
    <vehicle id="veh46" type="veh_passenger" depart="136.54" departLane="best">
        <route edges="369007476#1 184279494#0 184279494#1 565300731#0 565300731#1 565300731#2 565300731#3 565300731#4 565300731#5 565300731#8 565300731#9 565300731#10 -23791995#3 -23791995#2 -23791995#1 -23791995#0 -23791991#1 -23791991#0 -414947297#1 -184279492#3 -184279492#2 -163623318#5 -163623318#4 -42294993#3 -42294993#2 -42294993#1 -42294993#0 -23791681#1 -23791681#0 -67411767#1 -67411767#0 68122525 -442436512 -15389819#6 -15389819#5 -15389819#4 -15389819#2 -15389819#1 -15389819#0 -233525235 -442773123 -447214443#1 -447214443#0 -174955294#1 -174955294#0 -442436506#1 -442436506#0 -37768338#1 -37768338#0 174955280#2 174955279 684607203#0 684607203#1 475020758#1 475020758#2 475020758#3 475020758#4 475020758#5 475020758#7 174955283#0 174955283#2 174955283#3 174955283#5 174955283#6"/>
    </vehicle>
    <vehicle id="veh47" type="veh_passenger" depart="139.51" departLane="best">
        <route edges="-447214443#0 447214443#0 447214443#1 442773123 233525235 15389819#0 15389819#1 15389819#2 15389819#4 15389819#5 15389819#6 442436512 447214444 67411728#0 67411767#0 67411767#1 67411767#2 15229961#0 163623318#4 163623318#5 184279492#2 184279492#3 414947297#1 23791991#0 23791991#1 23791994 23791995#1 23791995#2 23791995#3 -565300731#10 -565300731#9 -565300731#8 -565300731#5 -565300731#4 -565300731#3 -565300731#2 -565300731#1 -565300731#0 -184279494#1 -184279494#0 -369007476#1 -369007476#0 -23791996 50648713#0 50648713#1 50648713#2 50648713#3 50648713#4 233525222"/>
    </vehicle>
    <vehicle id="veh48" type="veh_passenger" depart="142.47" departLane="best">
        <route edges="-20441550#1 -20441550#0 14464640#2 529399885#0 529399885#1 586907419 233525211#1 233525211#2 233525211#3 233525211#4 233525211#5 34074428 128131688 15093773#1 135929304#0 135929304#1 135929304#3 135929304#4 135929304#6 15229951#7 15229951#1 15229950#0 15229950#1 15229950#2 15229980#5 15229980#1 15229934#0 15229934#1 23795596 362262996#1 697849872 392575750 362262995 22737018 392575756 370956706 697183346#8 96144335 -22737000 22736999 697183355#4 22737019 131339233"/>
    </vehicle>