<?xml version="1.0" encoding="UTF-8"?>
<!-- generated on 2021-01-26 17:28:07.027612 by $Id: ptlines2flows.py v1_3_1+0313-ccb31df3eb jakob.erdmann@dlr.de 2019-09-02 13:26:32 +0200 $ v1_8_0+0044-4820708f3d
  options: -n osm.net.xml -e 3600 -p 600 <doubleminus>random-begin <doubleminus>seed 42 <doubleminus>ptstops osm_stops.add.xml <doubleminus>ptlines osm_ptlines.xml -o osm_pt.rou.xml <doubleminus>ignore-errors <doubleminus>vtype-prefix pt_ <doubleminus>stopinfos-file stopinfos.xml <doubleminus>routes-file vehroutes.xml <doubleminus>trips-file trips.trips.xml <doubleminus>min-stops 0 <doubleminus>extend-to-fringe <doubleminus>verbose
-->
<routes xmlns:xsi="http://www.w3.org/2001/XMLSchema-instance" xsi:noNamespaceSchemaLocation="http://sumo.dlr.de/xsd/routes_file.xsd">
    <vType id="pt_bus" vClass="bus"/>
    <vType id="pt_tram" vClass="tram"/>
    <vType id="pt_train" vClass="rail"/>
    <vType id="pt_subway" vClass="rail_urban"/>
    <vType id="pt_light_rail" vClass="rail_urban"/>
    <vType id="pt_monorail" vClass="rail"/>
    <vType id="pt_trolleybus" vClass="bus"/>
    <vType id="pt_aerialway" vClass="bus"/>
    <vType id="pt_ferry" vClass="ship"/>
    <trip id="1_bus_7:0" type="pt_bus" depart="15" departLane="best" from="20437760#0" to="174955282#1">
        <stop busStop="1722770104" duration="30"/>
        <stop busStop="-6414402742" duration="30"/>
        <stop busStop="-1855952972" duration="30"/>
        <stop busStop="-677507133" duration="30"/>
        <stop busStop="811025548" duration="30"/>
        <stop busStop="5444780508" duration="30"/>
    </trip>
    <trip id="2_bus_7:1" type="pt_bus" depart="15" departLane="best" from="684608919#0" to="22737007#1">
        <stop busStop="-5444780498" duration="30"/>
        <stop busStop="-6414402747" duration="30"/>
        <stop busStop="1855952971" duration="30"/>
        <stop busStop="6414402746" duration="30"/>
        <stop busStop="6414402745" duration="30"/>
        <stop busStop="-6414402744" duration="30"/>
    </trip>
    <trip id="3_bus_9:0" type="pt_bus" depart="17" departLane="best" from="233525219" to="-832745421#1">
        <stop busStop="1617097618" duration="30"/>
        <stop busStop="1345568298" duration="30"/>
        <stop busStop="1416618379" duration="30"/>
        <stop busStop="1732826824" duration="30"/>
        <stop busStop="1420982408" duration="30"/>
        <stop busStop="1114038113" duration="30"/>
        <stop busStop="1335923953" duration="30"/>
        <stop busStop="-4096918910" duration="30"/>
        <stop busStop="-6551894444" duration="30"/>
        <stop busStop="-3980845786" duration="30"/>
    </trip>
    <trip id="4_bus_91-06:0" type="pt_bus" depart="52" departLane="best" from="832745421#0" to="219719294#8">
        <stop busStop="-6552378820" duration="30"/>
        <stop busStop="6551894425" duration="30"/>
        <stop busStop="6551894424" duration="30"/>
        <stop busStop="-6551894423" duration="30"/>
    </trip>
    <trip id="5_bus_91-06:1" type="pt_bus" depart="55" departLane="best" from="-219719294#8" to="-832745421#1">
        <stop busStop="1114038111" duration="30"/>
        <stop busStop="-4096918910" duration="30"/>
        <stop busStop="-6551894444" duration="30"/>
        <stop busStop="-3980845786" duration="30"/>
    </trip>
    <trip id="6_bus_1:0" type="pt_bus" depart="58" departLane="best" from="717926947#0" to="14464635#1">
        <stop busStop="3842670001" duration="30"/>
        <stop busStop="1420980855" duration="30"/>
        <stop busStop="1416623837" duration="30"/>
    </trip>
    <trip id="7_bus_6:0" type="pt_bus" depart="93" departLane="best" from="565300732#0" to="174955282#1">
        <stop busStop="5444780496" duration="30"/>
        <stop busStop="-5444780495" duration="30"/>
        <stop busStop="5444780504" duration="30"/>
        <stop busStop="-5444780507" duration="30"/>
        <stop busStop="-5444780500" duration="30"/>
        <stop busStop="5444780508" duration="30"/>
    </trip>
    <trip id="8_bus_91-10:0" type="pt_bus" depart="119" departLane="best" from="-219719294#8" to="-832745421#1">
        <stop busStop="1114038111" duration="30"/>
        <stop busStop="-4096918910" duration="30"/>
        <stop busStop="-6551894444" duration="30"/>
        <stop busStop="-3980845786" duration="30"/>
    </trip>
    <trip id="9_bus_8:0" type="pt_bus" depart="131" departLane="best" from="696788631" to="14464635#1">
        <stop busStop="1363114625" duration="30"/>
        <stop busStop="1429827410" duration="30"/>
        <stop busStop="-1429827411" duration="30"/>
        <stop busStop="1420980850" duration="30"/>
        <stop busStop="1420980857" duration="30"/>
        <stop busStop="1416447173" duration="30"/>
        <stop busStop="-604035097" duration="30"/>
        <stop busStop="1416623837" duration="30"/>
    </trip>
    <trip id="10_bus_8:1" type="pt_bus" depart="132" departLane="best" from="233525219" to="26824594">
        <stop busStop="1617097618" duration="30"/>
        <stop busStop="1345568298" duration="30"/>
        <stop busStop="1416618379" duration="30"/>
        <stop busStop="1420980857" duration="30"/>
        <stop busStop="-6558738846" duration="30"/>
    </trip>
    <trip id="11_bus_3:0" type="pt_bus" depart="133" departLane="best" from="233525219" to="14464635#1">
        <stop busStop="1617097618" duration="30"/>
    </trip>
    <trip id="13_bus_91-08:0" type="pt_bus" depart="201" departLane="best" from="69706093" to="22737001#1">
        <stop busStop="1732826840" duration="30"/>
        <stop busStop="-6414402744" duration="30"/>
    </trip>
    <trip id="14_bus_91-08:1" type="pt_bus" depart="204" departLane="best" from="606974222" to="19881634">
        <stop busStop="1722770104" duration="30"/>
        <stop busStop="1732826814" duration="30"/>
    </trip>
    <trip id="15_bus_91-08:2" type="pt_bus" depart="227" departLane="best" from="-219719294#8" to="22737001#1">
        <stop busStop="1114038111" duration="30"/>
        <stop busStop="-6414402744" duration="30"/>
    </trip>
    <trip id="16_bus_91-08:3" type="pt_bus" depart="253" departLane="best" from="606974222" to="219719294#8">
        <stop busStop="1722770104" duration="30"/>
        <stop busStop="-6551894423" duration="30"/>
    </trip>
    <trip id="17_bus_91-10:1" type="pt_bus" depart="303" departLane="best" from="832745421#0" to="219719294#8">
        <stop busStop="-6552378820" duration="30"/>
        <stop busStop="6551894425" duration="30"/>
        <stop busStop="6551894424" duration="30"/>
        <stop busStop="-6551894423" duration="30"/>
    </trip>
    <trip id="18_bus_4:0" type="pt_bus" depart="321" departLane="best" from="696040927#0" to="266622814#1">
        <stop busStop="6166070861" duration="30"/>
    </trip>
    <trip id="19_bus_4:1" type="pt_bus" depart="326" departLane="best" from="-266622814#1" to="368477969#4">
        <stop busStop="-5762436116" duration="30"/>
    </trip>
    <trip id="20_bus_20:0" type="pt_bus" depart="353" departLane="best" from="696040927#0" to="266622814#1">
        <stop busStop="6166070861" duration="30"/>
    </trip>
    <trip id="21_bus_20:1" type="pt_bus" depart="362" departLane="best" from="-266622814#1" to="368477969#4">
        <stop busStop="-5762436116" duration="30"/>
    </trip>
    <trip id="22_bus_9:1" type="pt_bus" depart="383" departLane="best" from="832745421#0" to="-233525219">
        <stop busStop="-6552378820" duration="30"/>
        <stop busStop="6551894425" duration="30"/>
        <stop busStop="243898123" duration="30"/>
        <stop busStop="1335923953@7886546" duration="30"/>
        <stop busStop="6551894424" duration="30"/>
        <stop busStop="-6552378817" duration="30"/>
        <stop busStop="-1420982413" duration="30"/>
        <stop busStop="-1341778473" duration="30"/>
        <stop busStop="1416447173" duration="30"/>
        <stop busStop="-604035097" duration="30"/>
        <stop busStop="1416623837" duration="30"/>
    </trip>
    <trip id="23_bus_6:1" type="pt_bus" depart="389" departLane="best" from="684608919#0" to="87434487#5">
        <stop busStop="-5444780498" duration="30"/>
        <stop busStop="5444780503" duration="30"/>
        <stop busStop="5444780497" duration="30"/>
        <stop busStop="-5444780502" duration="30"/>
        <stop busStop="5444780499" duration="30"/>
        <stop busStop="-5444780505" duration="30"/>
    </trip>
    <trip id="24_train_B:0" type="pt_train" depart="406" departLane="best" from="-30037881" to="-23795604">
        <stop busStop="-635550116" duration="30"/>
        <stop busStop="-5836393504" duration="30"/>
    </trip>
    <trip id="25_train_B:1" type="pt_train" depart="418" departLane="best" from="-30037881" to="-23795604">
        <stop busStop="-635550116" duration="30"/>
        <stop busStop="-5836393504" duration="30"/>
    </trip>
    <trip id="26_train_B:2" type="pt_train" depart="437" departLane="best" from="-30037881" to="-23795604">
        <stop busStop="-635550116" duration="30"/>
        <stop busStop="-5836393504" duration="30"/>
    </trip>
    <trip id="27_train_B:3" type="pt_train" depart="441" departLane="best" from="103240673" to="103240673">
        <stop busStop="1192019234" duration="30"/>
        <stop busStop="5836393503" duration="30"/>
    </trip>
    <trip id="28_train_B:4" type="pt_train" depart="483" departLane="best" from="103240673" to="103240673">
        <stop busStop="1192019234" duration="30"/>
        <stop busStop="5836393503" duration="30"/>
    </trip>
    <trip id="29_train_B:5" type="pt_train" depart="484" departLane="best" from="103240673" to="103240673">
        <stop busStop="1192019234" duration="30"/>
        <stop busStop="5836393503" duration="30"/>
    </trip>
    <trip id="30_bus_9:2" type="pt_bus" depart="485" departLane="best" from="832745421#0" to="-701943514">
        <stop busStop="-6552378820" duration="30"/>
        <stop busStop="6551894425" duration="30"/>
        <stop busStop="6551894424" duration="30"/>
        <stop busStop="-6552378817" duration="30"/>
        <stop busStop="-1420982413" duration="30"/>
    </trip>
    <trip id="31_bus_9:3" type="pt_bus" depart="508" departLane="best" from="701943517" to="-832745421#1">
        <stop busStop="1420982408" duration="30"/>
        <stop busStop="1114038113" duration="30"/>
        <stop busStop="-4096918910" duration="30"/>
        <stop busStop="-6551894444" duration="30"/>
        <stop busStop="-3980845786" duration="30"/>
    </trip>
    <trip id="32_bus_91-08:4" type="pt_bus" depart="535" departLane="best" from="606974222" to="19881634">
        <stop busStop="1732826814" duration="30"/>
    </trip>
    <trip id="33_bus_11:0" type="pt_bus" depart="574" departLane="best" from="134233673#0" to="-832745421#1">
        <stop busStop="6414402746" duration="30"/>
        <stop busStop="6414402745" duration="30"/>
        <stop busStop="6451425150" duration="30"/>
        <stop busStop="-6451425152" duration="30"/>
    </trip>
    <trip id="34_bus_11:1" type="pt_bus" depart="583" departLane="best" from="832745421#0" to="-745161146">
        <stop busStop="6451425153" duration="30"/>
        <stop busStop="-6451425151" duration="30"/>
        <stop busStop="-6414402742" duration="30"/>
    </trip>
</routes>
